123658957_pose10
     RDKit          3D

 46 49  0  0  0  0  0  0  0  0999 V2000
    3.5238   43.7088   48.0267 F   0  0  0  0  0  0  0  0  0  0  0  0
    3.9304   43.4073   49.2664 C   0  0  0  0  0  0  0  0  0  0  0  0
    4.0626   42.0672   49.6194 C   0  0  0  0  0  0  0  0  0  0  0  0
    4.4928   41.7208   50.9034 C   0  0  0  0  0  0  0  0  0  0  0  0
    4.7995   42.7176   51.8443 C   0  0  0  0  0  0  0  0  0  0  0  0
    5.2451   42.4308   53.1492 N   0  0  0  0  0  0  0  0  0  0  0  0
    5.2783   43.2528   54.2754 C   0  0  0  0  0  0  0  0  0  0  0  0
    4.5816   42.8680   55.3491 N   0  0  0  0  0  0  0  0  0  0  0  0
    4.6549   43.7261   56.3808 C   0  0  0  0  0  0  0  0  0  0  0  0
    4.0613   43.5619   57.5906 N   0  0  0  0  0  0  0  0  0  0  0  0
    4.3914   44.6263   58.2886 C   0  0  0  0  0  0  0  0  0  0  0  0
    5.1831   45.4785   57.5647 N   0  0  0  0  0  0  0  0  0  0  0  0
    5.3623   44.9122   56.3292 C   0  0  0  0  0  0  0  0  0  0  0  0
    6.0345   45.2779   55.1815 C   0  0  0  0  0  0  0  0  0  0  0  0
    6.7229   46.4669   55.1636 O   0  0  0  0  0  0  0  0  0  0  0  0
    6.3255   47.4138   54.1761 C   0  0  0  0  0  0  0  0  0  0  0  0
    7.5247   47.8875   53.3306 C   0  0  0  0  0  0  0  0  0  0  0  0
    8.3914   46.7254   52.8154 C   0  0  0  0  0  0  0  0  0  0  0  0
    7.8408   46.0284   51.5735 C   0  0  0  0  0  0  0  0  0  0  0  0
    7.5134   47.0220   50.4649 C   0  0  0  0  0  0  0  0  0  0  0  0
    6.5743   48.1210   50.9459 C   0  0  0  0  0  0  0  0  0  0  0  0
    7.1166   48.8292   52.1854 C   0  0  0  0  0  0  0  0  0  0  0  0
    5.9574   44.4015   54.1804 N   0  0  0  0  0  4  0  0  0  0  0  0
    4.6415   44.0625   51.4755 C   0  0  0  0  0  0  0  0  0  0  0  0
    4.2149   44.4064   50.1902 C   0  0  0  0  0  0  0  0  0  0  0  0
    4.0564   46.0655   49.7690 Cl  0  0  0  0  0  0  0  0  0  0  0  0
    3.8284   41.2803   48.8873 H   0  0  0  0  0  0  0  0  0  0  0  0
    4.5918   40.6604   51.1789 H   0  0  0  0  0  0  0  0  0  0  0  0
    6.0894   41.8508   53.1472 H   0  0  0  0  0  0  0  0  0  0  0  0
    4.0717   44.8097   59.3250 H   0  0  0  0  0  0  0  0  0  0  0  0
    5.5539   46.3624   57.8929 H   0  0  0  0  0  0  0  0  0  0  0  0
    5.5826   46.9472   53.5124 H   0  0  0  0  0  0  0  0  0  0  0  0
    5.8987   48.2882   54.6891 H   0  0  0  0  0  0  0  0  0  0  0  0
    8.1489   48.4731   54.0217 H   0  0  0  0  0  0  0  0  0  0  0  0
    9.3888   47.1213   52.5736 H   0  0  0  0  0  0  0  0  0  0  0  0
    8.4111   45.9706   53.6154 H   0  0  0  0  0  0  0  0  0  0  0  0
    8.5922   45.3159   51.2025 H   0  0  0  0  0  0  0  0  0  0  0  0
    6.9113   45.5120   51.8552 H   0  0  0  0  0  0  0  0  0  0  0  0
    8.4482   47.4821   50.1122 H   0  0  0  0  0  0  0  0  0  0  0  0
    7.0104   46.4745   49.6541 H   0  0  0  0  0  0  0  0  0  0  0  0
    6.4487   48.8596   50.1405 H   0  0  0  0  0  0  0  0  0  0  0  0
    5.6129   47.6570   51.2109 H   0  0  0  0  0  0  0  0  0  0  0  0
    8.0008   49.4125   51.8886 H   0  0  0  0  0  0  0  0  0  0  0  0
    6.2983   49.4548   52.5714 H   0  0  0  0  0  0  0  0  0  0  0  0
    6.3927   44.5769   53.2861 H   0  0  0  0  0  0  0  0  0  0  0  0
    4.8561   44.8555   52.2071 H   0  0  0  0  0  0  0  0  0  0  0  0
  1  2  1  0
  2  3  2  0
  3  4  1  0
  4  5  2  0
  5  6  1  0
  6  7  1  0
  7  8  2  0
  8  9  1  0
  9 10  1  0
 10 11  2  0
 11 12  1  0
 12 13  1  0
 13 14  1  0
 14 15  1  0
 15 16  1  0
 16 17  1  0
 17 18  1  0
 18 19  1  0
 19 20  1  0
 20 21  1  0
 21 22  1  0
 14 23  2  0
  5 24  1  0
 24 25  2  0
 25 26  1  0
 25  2  1  0
 23  7  1  0
 13  9  2  0
 22 17  1  0
  3 27  1  0
  4 28  1  0
  6 29  1  0
 11 30  1  0
 12 31  1  0
 16 32  1  0
 16 33  1  0
 17 34  1  0
 18 35  1  0
 18 36  1  0
 19 37  1  0
 19 38  1  0
 20 39  1  0
 20 40  1  0
 21 41  1  0
 21 42  1  0
 22 43  1  0
 22 44  1  0
 23 45  1  0
 24 46  1  0
M  CHG  1  23   1
M  END
>  <meeko>  (1) 
{"is_sidechain": false}

>  <CID>  (1) 
123658957

>  <pose_index>  (1) 
10

>  <docking_score>  (1) 
-8.709

>  <rmsd_to_best_selected>  (1) 
1.7173027982654858

>  <MWT>  (1) 
376.84299999999973

>  <TPSA>  (1) 
76.97

>  <logP>  (1) 
4.2672000000000025

>  <HBD>  (1) 
2

>  <HBA>  (1) 
4

>  <SMILES>  (1) 
[H]c1c([H])c(N([H])c2nc3nc([H])n([H])c3c(OC([H])([H])C3([H])C([H])([H])C([H])([H])C([H])([H])C([H])([H])C3([H])[H])[n+]2[H])c([H])c(Cl)c1F

$$$$
123658957_pose1
     RDKit          3D

 46 49  0  0  0  0  0  0  0  0999 V2000
    7.0200   40.7780   49.3330 F   0  0  0  0  0  0  0  0  0  0  0  0
    6.1380   41.6470   49.8430 C   0  0  0  0  0  0  0  0  0  0  0  0
    4.9140   41.1670   50.2980 C   0  0  0  0  0  0  0  0  0  0  0  0
    3.9750   42.0490   50.8430 C   0  0  0  0  0  0  0  0  0  0  0  0
    4.2610   43.4210   50.9390 C   0  0  0  0  0  0  0  0  0  0  0  0
    3.3600   44.3560   51.4860 N   0  0  0  0  0  0  0  0  0  0  0  0
    3.2840   44.8590   52.7850 C   0  0  0  0  0  0  0  0  0  0  0  0
    2.1490   44.6610   53.4630 N   0  0  0  0  0  0  0  0  0  0  0  0
    2.1550   45.1940   54.6970 C   0  0  0  0  0  0  0  0  0  0  0  0
    1.1420   45.1170   55.5980 N   0  0  0  0  0  0  0  0  0  0  0  0
    1.5670   45.7670   56.6590 C   0  0  0  0  0  0  0  0  0  0  0  0
    2.8290   46.2650   56.4720 N   0  0  0  0  0  0  0  0  0  0  0  0
    3.2240   45.9040   55.2100 C   0  0  0  0  0  0  0  0  0  0  0  0
    4.3580   46.1090   54.4510 C   0  0  0  0  0  0  0  0  0  0  0  0
    5.4000   46.8250   54.9890 O   0  0  0  0  0  0  0  0  0  0  0  0
    6.7100   46.4200   54.6080 C   0  0  0  0  0  0  0  0  0  0  0  0
    7.4690   47.5570   53.8940 C   0  0  0  0  0  0  0  0  0  0  0  0
    8.9640   47.5990   54.2560 C   0  0  0  0  0  0  0  0  0  0  0  0
    9.8280   46.5970   53.4940 C   0  0  0  0  0  0  0  0  0  0  0  0
    9.6100   46.6910   51.9890 C   0  0  0  0  0  0  0  0  0  0  0  0
    8.1390   46.5490   51.6180 C   0  0  0  0  0  0  0  0  0  0  0  0
    7.2650   47.5500   52.3700 C   0  0  0  0  0  0  0  0  0  0  0  0
    4.3300   45.5570   53.2380 N   0  0  0  0  0  4  0  0  0  0  0  0
    5.4930   43.8880   50.4580 C   0  0  0  0  0  0  0  0  0  0  0  0
    6.4320   43.0040   49.9170 C   0  0  0  0  0  0  0  0  0  0  0  0
    7.9400   43.6110   49.3600 Cl  0  0  0  0  0  0  0  0  0  0  0  0
    4.6846   40.0934   50.2291 H   0  0  0  0  0  0  0  0  0  0  0  0
    3.0070   41.6660   51.1985 H   0  0  0  0  0  0  0  0  0  0  0  0
    2.4070   44.2200   51.1360 H   0  0  0  0  0  0  0  0  0  0  0  0
    0.9819   45.8948   57.5817 H   0  0  0  0  0  0  0  0  0  0  0  0
    3.3590   46.8030   57.1490 H   0  0  0  0  0  0  0  0  0  0  0  0
    7.2696   46.1275   55.5087 H   0  0  0  0  0  0  0  0  0  0  0  0
    6.6201   45.5743   53.9103 H   0  0  0  0  0  0  0  0  0  0  0  0
    7.0184   48.4855   54.2747 H   0  0  0  0  0  0  0  0  0  0  0  0
    9.3410   48.6101   54.0425 H   0  0  0  0  0  0  0  0  0  0  0  0
    9.0361   47.3290   55.3199 H   0  0  0  0  0  0  0  0  0  0  0  0
   10.8865   46.8001   53.7138 H   0  0  0  0  0  0  0  0  0  0  0  0
    9.5440   45.5849   53.8180 H   0  0  0  0  0  0  0  0  0  0  0  0
    9.9727   47.6682   51.6375 H   0  0  0  0  0  0  0  0  0  0  0  0
   10.1628   45.8680   51.5124 H   0  0  0  0  0  0  0  0  0  0  0  0
    8.0264   46.7196   50.5372 H   0  0  0  0  0  0  0  0  0  0  0  0
    7.8131   45.5354   51.8945 H   0  0  0  0  0  0  0  0  0  0  0  0
    7.4902   48.5569   51.9887 H   0  0  0  0  0  0  0  0  0  0  0  0
    6.2220   47.2470   52.1957 H   0  0  0  0  0  0  0  0  0  0  0  0
    5.0970   45.6630   52.5890 H   0  0  0  0  0  0  0  0  0  0  0  0
    5.7234   44.9625   50.5069 H   0  0  0  0  0  0  0  0  0  0  0  0
  1  2  1  0
  2  3  2  0
  3  4  1  0
  4  5  2  0
  5  6  1  0
  6  7  1  0
  7  8  2  0
  8  9  1  0
  9 10  1  0
 10 11  2  0
 11 12  1  0
 12 13  1  0
 13 14  1  0
 14 15  1  0
 15 16  1  0
 16 17  1  0
 17 18  1  0
 18 19  1  0
 19 20  1  0
 20 21  1  0
 21 22  1  0
 14 23  2  0
  5 24  1  0
 24 25  2  0
 25 26  1  0
 25  2  1  0
 23  7  1  0
 13  9  2  0
 22 17  1  0
  3 27  1  0
  4 28  1  0
  6 29  1  0
 11 30  1  0
 12 31  1  0
 16 32  1  0
 16 33  1  0
 17 34  1  0
 18 35  1  0
 18 36  1  0
 19 37  1  0
 19 38  1  0
 20 39  1  0
 20 40  1  0
 21 41  1  0
 21 42  1  0
 22 43  1  0
 22 44  1  0
 23 45  1  0
 24 46  1  0
M  CHG  1  23   1
M  END
>  <meeko>  (2) 
{"is_sidechain": false}

>  <CID>  (2) 
123658957

>  <pose_index>  (2) 
1

>  <docking_score>  (2) 
-9.574

>  <rmsd_to_best_selected>  (2) 
0.0

>  <MWT>  (2) 
376.84299999999973

>  <TPSA>  (2) 
76.97

>  <logP>  (2) 
4.2672000000000025

>  <HBD>  (2) 
2

>  <HBA>  (2) 
4

>  <SMILES>  (2) 
[H]c1c([H])c(N([H])c2nc3nc([H])n([H])c3c(OC([H])([H])C3([H])C([H])([H])C([H])([H])C([H])([H])C([H])([H])C3([H])[H])[n+]2[H])c([H])c(Cl)c1F

$$$$
123658957_pose5
     RDKit          3D

 46 49  0  0  0  0  0  0  0  0999 V2000
    3.4452   43.5087   47.5841 F   0  0  0  0  0  0  0  0  0  0  0  0
    3.8443   43.1787   48.8186 C   0  0  0  0  0  0  0  0  0  0  0  0
    3.3404   42.0157   49.3954 C   0  0  0  0  0  0  0  0  0  0  0  0
    3.7450   41.6409   50.6810 C   0  0  0  0  0  0  0  0  0  0  0  0
    4.6617   42.4279   51.3959 C   0  0  0  0  0  0  0  0  0  0  0  0
    5.1117   42.0971   52.6885 N   0  0  0  0  0  0  0  0  0  0  0  0
    5.0217   42.8297   53.8736 C   0  0  0  0  0  0  0  0  0  0  0  0
    4.1584   42.4082   54.8026 N   0  0  0  0  0  0  0  0  0  0  0  0
    4.1241   43.1811   55.9012 C   0  0  0  0  0  0  0  0  0  0  0  0
    3.3534   42.9632   56.9988 N   0  0  0  0  0  0  0  0  0  0  0  0
    3.6311   43.9511   57.8221 C   0  0  0  0  0  0  0  0  0  0  0  0
    4.5604   44.8046   57.2895 N   0  0  0  0  0  0  0  0  0  0  0  0
    4.8893   44.3219   56.0492 C   0  0  0  0  0  0  0  0  0  0  0  0
    5.7382   44.7303   55.0412 C   0  0  0  0  0  0  0  0  0  0  0  0
    6.4812   45.8735   55.2188 O   0  0  0  0  0  0  0  0  0  0  0  0
    7.2735   46.2919   54.1127 C   0  0  0  0  0  0  0  0  0  0  0  0
    7.0720   47.7902   53.8062 C   0  0  0  0  0  0  0  0  0  0  0  0
    8.3970   48.5678   53.7280 C   0  0  0  0  0  0  0  0  0  0  0  0
    9.1318   48.4346   52.3956 C   0  0  0  0  0  0  0  0  0  0  0  0
    8.2223   48.7499   51.2138 C   0  0  0  0  0  0  0  0  0  0  0  0
    6.9523   47.9085   51.2345 C   0  0  0  0  0  0  0  0  0  0  0  0
    6.2057   48.0370   52.5592 C   0  0  0  0  0  0  0  0  0  0  0  0
    5.7645   43.9380   53.9704 N   0  0  0  0  0  4  0  0  0  0  0  0
    5.1426   43.6062   50.8050 C   0  0  0  0  0  0  0  0  0  0  0  0
    4.7409   43.9775   49.5191 C   0  0  0  0  0  0  0  0  0  0  0  0
    5.3705   45.4162   48.8203 Cl  0  0  0  0  0  0  0  0  0  0  0  0
    2.6243   41.3920   48.8403 H   0  0  0  0  0  0  0  0  0  0  0  0
    3.3422   40.7234   51.1347 H   0  0  0  0  0  0  0  0  0  0  0  0
    6.0197   41.6244   52.6695 H   0  0  0  0  0  0  0  0  0  0  0  0
    3.1737   44.0761   58.8146 H   0  0  0  0  0  0  0  0  0  0  0  0
    4.9246   45.6362   57.7388 H   0  0  0  0  0  0  0  0  0  0  0  0
    8.3339   46.1143   54.3452 H   0  0  0  0  0  0  0  0  0  0  0  0
    6.9638   45.7147   53.2290 H   0  0  0  0  0  0  0  0  0  0  0  0
    6.5148   48.1871   54.6676 H   0  0  0  0  0  0  0  0  0  0  0  0
    8.1806   49.6331   53.8961 H   0  0  0  0  0  0  0  0  0  0  0  0
    9.0582   48.1371   54.4944 H   0  0  0  0  0  0  0  0  0  0  0  0
    9.9822   49.1323   52.3866 H   0  0  0  0  0  0  0  0  0  0  0  0
    9.4736   47.3938   52.2960 H   0  0  0  0  0  0  0  0  0  0  0  0
    7.9449   49.8136   51.2524 H   0  0  0  0  0  0  0  0  0  0  0  0
    8.7709   48.5165   50.2894 H   0  0  0  0  0  0  0  0  0  0  0  0
    6.2918   48.2416   50.4203 H   0  0  0  0  0  0  0  0  0  0  0  0
    7.2397   46.8545   51.1062 H   0  0  0  0  0  0  0  0  0  0  0  0
    5.7928   49.0546   52.6235 H   0  0  0  0  0  0  0  0  0  0  0  0
    5.4298   47.2573   52.5579 H   0  0  0  0  0  0  0  0  0  0  0  0
    6.3339   44.1527   53.1633 H   0  0  0  0  0  0  0  0  0  0  0  0
    5.8443   44.2454   51.3608 H   0  0  0  0  0  0  0  0  0  0  0  0
  1  2  1  0
  2  3  2  0
  3  4  1  0
  4  5  2  0
  5  6  1  0
  6  7  1  0
  7  8  2  0
  8  9  1  0
  9 10  1  0
 10 11  2  0
 11 12  1  0
 12 13  1  0
 13 14  1  0
 14 15  1  0
 15 16  1  0
 16 17  1  0
 17 18  1  0
 18 19  1  0
 19 20  1  0
 20 21  1  0
 21 22  1  0
 14 23  2  0
  5 24  1  0
 24 25  2  0
 25 26  1  0
 25  2  1  0
 23  7  1  0
 13  9  2  0
 22 17  1  0
  3 27  1  0
  4 28  1  0
  6 29  1  0
 11 30  1  0
 12 31  1  0
 16 32  1  0
 16 33  1  0
 17 34  1  0
 18 35  1  0
 18 36  1  0
 19 37  1  0
 19 38  1  0
 20 39  1  0
 20 40  1  0
 21 41  1  0
 21 42  1  0
 22 43  1  0
 22 44  1  0
 23 45  1  0
 24 46  1  0
M  CHG  1  23   1
M  END
>  <meeko>  (3) 
{"is_sidechain": false}

>  <CID>  (3) 
123658957

>  <pose_index>  (3) 
5

>  <docking_score>  (3) 
-8.986

>  <rmsd_to_best_selected>  (3) 
1.1907434183190355

>  <MWT>  (3) 
376.84299999999973

>  <TPSA>  (3) 
76.97

>  <logP>  (3) 
4.2672000000000025

>  <HBD>  (3) 
2

>  <HBA>  (3) 
4

>  <SMILES>  (3) 
[H]c1c([H])c(N([H])c2nc3nc([H])n([H])c3c(OC([H])([H])C3([H])C([H])([H])C([H])([H])C([H])([H])C([H])([H])C3([H])[H])[n+]2[H])c([H])c(Cl)c1F

$$$$
123658957_pose7
     RDKit          3D

 46 49  0  0  0  0  0  0  0  0999 V2000
    6.0234   42.5777   47.8631 F   0  0  0  0  0  0  0  0  0  0  0  0
    5.5035   42.6387   49.0962 C   0  0  0  0  0  0  0  0  0  0  0  0
    5.7005   41.5634   49.9572 C   0  0  0  0  0  0  0  0  0  0  0  0
    5.1769   41.6012   51.2536 C   0  0  0  0  0  0  0  0  0  0  0  0
    4.4547   42.7205   51.6976 C   0  0  0  0  0  0  0  0  0  0  0  0
    3.9114   42.8199   52.9932 N   0  0  0  0  0  0  0  0  0  0  0  0
    4.4020   43.4956   54.1107 C   0  0  0  0  0  0  0  0  0  0  0  0
    4.6601   42.7767   55.2079 N   0  0  0  0  0  0  0  0  0  0  0  0
    5.1110   43.5084   56.2417 C   0  0  0  0  0  0  0  0  0  0  0  0
    5.4685   43.0229   57.4583 N   0  0  0  0  0  0  0  0  0  0  0  0
    5.8449   44.0730   58.1558 C   0  0  0  0  0  0  0  0  0  0  0  0
    5.7405   45.2268   57.4256 N   0  0  0  0  0  0  0  0  0  0  0  0
    5.2691   44.8800   56.1867 C   0  0  0  0  0  0  0  0  0  0  0  0
    4.9511   45.5753   55.0379 C   0  0  0  0  0  0  0  0  0  0  0  0
    5.1136   46.9405   55.0199 O   0  0  0  0  0  0  0  0  0  0  0  0
    6.3239   47.4267   54.4469 C   0  0  0  0  0  0  0  0  0  0  0  0
    6.0773   48.0758   53.0711 C   0  0  0  0  0  0  0  0  0  0  0  0
    7.1751   49.0804   52.6770 C   0  0  0  0  0  0  0  0  0  0  0  0
    8.4404   48.4435   52.1076 C   0  0  0  0  0  0  0  0  0  0  0  0
    8.1252   47.4788   50.9703 C   0  0  0  0  0  0  0  0  0  0  0  0
    7.1121   46.4210   51.3867 C   0  0  0  0  0  0  0  0  0  0  0  0
    5.8393   47.0449   51.9543 C   0  0  0  0  0  0  0  0  0  0  0  0
    4.5220   44.8248   54.0247 N   0  0  0  0  0  4  0  0  0  0  0  0
    4.2509   43.7858   50.8068 C   0  0  0  0  0  0  0  0  0  0  0  0
    4.7788   43.7487   49.5132 C   0  0  0  0  0  0  0  0  0  0  0  0
    4.5276   45.0833   48.4596 Cl  0  0  0  0  0  0  0  0  0  0  0  0
    6.2679   40.6841   49.6184 H   0  0  0  0  0  0  0  0  0  0  0  0
    5.3319   40.7478   51.9302 H   0  0  0  0  0  0  0  0  0  0  0  0
    3.4999   41.9360   53.3045 H   0  0  0  0  0  0  0  0  0  0  0  0
    6.1995   44.0295   59.1962 H   0  0  0  0  0  0  0  0  0  0  0  0
    5.9706   46.1577   57.7551 H   0  0  0  0  0  0  0  0  0  0  0  0
    6.7631   48.1760   55.1219 H   0  0  0  0  0  0  0  0  0  0  0  0
    7.0067   46.5753   54.3092 H   0  0  0  0  0  0  0  0  0  0  0  0
    5.1438   48.6459   53.1872 H   0  0  0  0  0  0  0  0  0  0  0  0
    6.7616   49.7611   51.9183 H   0  0  0  0  0  0  0  0  0  0  0  0
    7.4732   49.5970   53.6012 H   0  0  0  0  0  0  0  0  0  0  0  0
    9.0995   49.2383   51.7282 H   0  0  0  0  0  0  0  0  0  0  0  0
    8.9296   47.8754   52.9126 H   0  0  0  0  0  0  0  0  0  0  0  0
    7.7159   48.0491   50.1234 H   0  0  0  0  0  0  0  0  0  0  0  0
    9.0573   46.9663   50.6901 H   0  0  0  0  0  0  0  0  0  0  0  0
    6.8495   45.8143   50.5076 H   0  0  0  0  0  0  0  0  0  0  0  0
    7.5688   45.8021   52.1731 H   0  0  0  0  0  0  0  0  0  0  0  0
    5.3061   47.5455   51.1326 H   0  0  0  0  0  0  0  0  0  0  0  0
    5.2621   46.2237   52.4043 H   0  0  0  0  0  0  0  0  0  0  0  0
    4.2395   45.2310   53.1436 H   0  0  0  0  0  0  0  0  0  0  0  0
    3.6684   44.6609   51.1308 H   0  0  0  0  0  0  0  0  0  0  0  0
  1  2  1  0
  2  3  2  0
  3  4  1  0
  4  5  2  0
  5  6  1  0
  6  7  1  0
  7  8  2  0
  8  9  1  0
  9 10  1  0
 10 11  2  0
 11 12  1  0
 12 13  1  0
 13 14  1  0
 14 15  1  0
 15 16  1  0
 16 17  1  0
 17 18  1  0
 18 19  1  0
 19 20  1  0
 20 21  1  0
 21 22  1  0
 14 23  2  0
  5 24  1  0
 24 25  2  0
 25 26  1  0
 25  2  1  0
 23  7  1  0
 13  9  2  0
 22 17  1  0
  3 27  1  0
  4 28  1  0
  6 29  1  0
 11 30  1  0
 12 31  1  0
 16 32  1  0
 16 33  1  0
 17 34  1  0
 18 35  1  0
 18 36  1  0
 19 37  1  0
 19 38  1  0
 20 39  1  0
 20 40  1  0
 21 41  1  0
 21 42  1  0
 22 43  1  0
 22 44  1  0
 23 45  1  0
 24 46  1  0
M  CHG  1  23   1
M  END
>  <meeko>  (4) 
{"is_sidechain": false}

>  <CID>  (4) 
123658957

>  <pose_index>  (4) 
7

>  <docking_score>  (4) 
-8.962

>  <rmsd_to_best_selected>  (4) 
1.0501996093881525

>  <MWT>  (4) 
376.84299999999973

>  <TPSA>  (4) 
76.97

>  <logP>  (4) 
4.2672000000000025

>  <HBD>  (4) 
2

>  <HBA>  (4) 
4

>  <SMILES>  (4) 
[H]c1c([H])c(N([H])c2nc3nc([H])n([H])c3c(OC([H])([H])C3([H])C([H])([H])C([H])([H])C([H])([H])C([H])([H])C3([H])[H])[n+]2[H])c([H])c(Cl)c1F

$$$$
123658957_pose8
     RDKit          3D

 46 49  0  0  0  0  0  0  0  0999 V2000
    3.8840   43.2077   47.8630 F   0  0  0  0  0  0  0  0  0  0  0  0
    4.1486   42.9839   49.1567 C   0  0  0  0  0  0  0  0  0  0  0  0
    5.4027   43.3311   49.6526 C   0  0  0  0  0  0  0  0  0  0  0  0
    5.7054   43.1176   51.0002 C   0  0  0  0  0  0  0  0  0  0  0  0
    4.7506   42.5564   51.8642 C   0  0  0  0  0  0  0  0  0  0  0  0
    4.9955   42.3244   53.2319 N   0  0  0  0  0  0  0  0  0  0  0  0
    4.9520   43.2168   54.3040 C   0  0  0  0  0  0  0  0  0  0  0  0
    3.9886   43.0486   55.2155 N   0  0  0  0  0  0  0  0  0  0  0  0
    4.0100   43.9609   56.2013 C   0  0  0  0  0  0  0  0  0  0  0  0
    3.1600   44.0025   57.2605 N   0  0  0  0  0  0  0  0  0  0  0  0
    3.5350   45.0453   57.9689 C   0  0  0  0  0  0  0  0  0  0  0  0
    4.6052   45.6826   57.3988 N   0  0  0  0  0  0  0  0  0  0  0  0
    4.9244   44.9955   56.2569 C   0  0  0  0  0  0  0  0  0  0  0  0
    5.8750   45.1429   55.2680 C   0  0  0  0  0  0  0  0  0  0  0  0
    6.7657   46.1863   55.3510 O   0  0  0  0  0  0  0  0  0  0  0  0
    7.5269   46.4636   54.1795 C   0  0  0  0  0  0  0  0  0  0  0  0
    6.7291   47.3193   53.1754 C   0  0  0  0  0  0  0  0  0  0  0  0
    7.2710   48.7538   53.0470 C   0  0  0  0  0  0  0  0  0  0  0  0
    8.4896   48.8907   52.1373 C   0  0  0  0  0  0  0  0  0  0  0  0
    8.2512   48.2552   50.7734 C   0  0  0  0  0  0  0  0  0  0  0  0
    7.8096   46.8019   50.8927 C   0  0  0  0  0  0  0  0  0  0  0  0
    6.5880   46.6513   51.7961 C   0  0  0  0  0  0  0  0  0  0  0  0
    5.8416   44.2153   54.3113 N   0  0  0  0  0  4  0  0  0  0  0  0
    3.4999   42.1958   51.3409 C   0  0  0  0  0  0  0  0  0  0  0  0
    3.1962   42.4143   49.9944 C   0  0  0  0  0  0  0  0  0  0  0  0
    1.6450   41.9805   49.3967 Cl  0  0  0  0  0  0  0  0  0  0  0  0
    6.1553   43.7736   48.9835 H   0  0  0  0  0  0  0  0  0  0  0  0
    6.6983   43.3909   51.3869 H   0  0  0  0  0  0  0  0  0  0  0  0
    5.7797   41.6822   53.3783 H   0  0  0  0  0  0  0  0  0  0  0  0
    3.0498   45.3658   58.9027 H   0  0  0  0  0  0  0  0  0  0  0  0
    5.0627   46.5101   57.7631 H   0  0  0  0  0  0  0  0  0  0  0  0
    8.4391   47.0073   54.4666 H   0  0  0  0  0  0  0  0  0  0  0  0
    7.7760   45.5075   53.6960 H   0  0  0  0  0  0  0  0  0  0  0  0
    5.7180   47.3933   53.6023 H   0  0  0  0  0  0  0  0  0  0  0  0
    6.4685   49.3895   52.6445 H   0  0  0  0  0  0  0  0  0  0  0  0
    7.5958   49.0570   54.0532 H   0  0  0  0  0  0  0  0  0  0  0  0
    8.7121   49.9590   51.9984 H   0  0  0  0  0  0  0  0  0  0  0  0
    9.3330   48.3703   52.6146 H   0  0  0  0  0  0  0  0  0  0  0  0
    7.4685   48.8227   50.2487 H   0  0  0  0  0  0  0  0  0  0  0  0
    9.1993   48.2785   50.2163 H   0  0  0  0  0  0  0  0  0  0  0  0
    7.5601   46.4225   49.8908 H   0  0  0  0  0  0  0  0  0  0  0  0
    8.6364   46.2295   51.3384 H   0  0  0  0  0  0  0  0  0  0  0  0
    5.7241   47.0998   51.2838 H   0  0  0  0  0  0  0  0  0  0  0  0
    6.4660   45.5738   51.9810 H   0  0  0  0  0  0  0  0  0  0  0  0
    6.4769   44.2388   53.5258 H   0  0  0  0  0  0  0  0  0  0  0  0
    2.7485   41.7350   51.9991 H   0  0  0  0  0  0  0  0  0  0  0  0
  1  2  1  0
  2  3  2  0
  3  4  1  0
  4  5  2  0
  5  6  1  0
  6  7  1  0
  7  8  2  0
  8  9  1  0
  9 10  1  0
 10 11  2  0
 11 12  1  0
 12 13  1  0
 13 14  1  0
 14 15  1  0
 15 16  1  0
 16 17  1  0
 17 18  1  0
 18 19  1  0
 19 20  1  0
 20 21  1  0
 21 22  1  0
 14 23  2  0
  5 24  1  0
 24 25  2  0
 25 26  1  0
 25  2  1  0
 23  7  1  0
 13  9  2  0
 22 17  1  0
  3 27  1  0
  4 28  1  0
  6 29  1  0
 11 30  1  0
 12 31  1  0
 16 32  1  0
 16 33  1  0
 17 34  1  0
 18 35  1  0
 18 36  1  0
 19 37  1  0
 19 38  1  0
 20 39  1  0
 20 40  1  0
 21 41  1  0
 21 42  1  0
 22 43  1  0
 22 44  1  0
 23 45  1  0
 24 46  1  0
M  CHG  1  23   1
M  END
>  <meeko>  (5) 
{"is_sidechain": false}

>  <CID>  (5) 
123658957

>  <pose_index>  (5) 
8

>  <docking_score>  (5) 
-8.932

>  <rmsd_to_best_selected>  (5) 
1.957284301553254

>  <MWT>  (5) 
376.84299999999973

>  <TPSA>  (5) 
76.97

>  <logP>  (5) 
4.2672000000000025

>  <HBD>  (5) 
2

>  <HBA>  (5) 
4

>  <SMILES>  (5) 
[H]c1c([H])c(N([H])c2nc3nc([H])n([H])c3c(OC([H])([H])C3([H])C([H])([H])C([H])([H])C([H])([H])C([H])([H])C3([H])[H])[n+]2[H])c([H])c(Cl)c1F

$$$$
123953120_pose1
     RDKit          3D

 46 49  0  0  0  0  0  0  0  0999 V2000
    7.8970   43.0510   48.4810 F   0  0  0  0  0  0  0  0  0  0  0  0
    6.8610   43.0480   49.3260 C   0  0  0  0  0  0  0  0  0  0  0  0
    6.4520   44.2360   49.9170 C   0  0  0  0  0  0  0  0  0  0  0  0
    5.3730   44.2260   50.8010 C   0  0  0  0  0  0  0  0  0  0  0  0
    4.6860   43.0350   51.0850 C   0  0  0  0  0  0  0  0  0  0  0  0
    3.6070   43.0890   51.9830 N   0  0  0  0  0  0  0  0  0  0  0  0
    3.4360   43.8830   53.1200 C   0  0  0  0  0  0  0  0  0  0  0  0
    2.1950   44.0220   53.6050 N   0  0  0  0  0  0  0  0  0  0  0  0
    2.1210   44.7800   54.7140 C   0  0  0  0  0  0  0  0  0  0  0  0
    0.9820   45.0970   55.3840 N   0  0  0  0  0  0  0  0  0  0  0  0
    1.3690   45.8470   56.3960 C   0  0  0  0  0  0  0  0  0  0  0  0
    2.7270   46.0340   56.3980 N   0  0  0  0  0  0  0  0  0  0  0  0
    3.2310   45.3340   55.3310 C   0  0  0  0  0  0  0  0  0  0  0  0
    4.4880   45.1020   54.8160 C   0  0  0  0  0  0  0  0  0  0  0  0
    5.6190   45.6530   55.3550 O   0  0  0  0  0  0  0  0  0  0  0  0
    6.0530   46.7810   54.5720 C   0  0  0  0  0  0  0  0  0  0  0  0
    7.3960   46.4310   53.9110 C   0  0  0  0  0  0  0  0  0  0  0  0
    7.3570   46.7260   52.4060 C   0  0  0  0  0  0  0  0  0  0  0  0
    8.6890   46.3960   51.7370 C   0  0  0  0  0  0  0  0  0  0  0  0
    9.8490   47.1300   52.4040 C   0  0  0  0  0  0  0  0  0  0  0  0
    9.8980   46.8500   53.9030 C   0  0  0  0  0  0  0  0  0  0  0  0
    8.5680   47.1680   54.5810 C   0  0  0  0  0  0  0  0  0  0  0  0
    4.5310   44.3890   53.6940 N   0  0  0  0  0  4  0  0  0  0  0  0
    5.1230   41.8430   50.4830 C   0  0  0  0  0  0  0  0  0  0  0  0
    6.2080   41.8520   49.6020 C   0  0  0  0  0  0  0  0  0  0  0  0
    6.9744   45.1770   49.6900 H   0  0  0  0  0  0  0  0  0  0  0  0
    5.0563   45.1633   51.2818 H   0  0  0  0  0  0  0  0  0  0  0  0
    2.7060   42.9820   51.5070 H   0  0  0  0  0  0  0  0  0  0  0  0
    0.6862   46.2710   57.1470 H   0  0  0  0  0  0  0  0  0  0  0  0
    3.2490   46.5690   57.0830 H   0  0  0  0  0  0  0  0  0  0  0  0
    5.3052   47.0037   53.7967 H   0  0  0  0  0  0  0  0  0  0  0  0
    6.1705   47.6639   55.2175 H   0  0  0  0  0  0  0  0  0  0  0  0
    7.5605   45.3522   54.0495 H   0  0  0  0  0  0  0  0  0  0  0  0
    6.5645   46.1195   51.9432 H   0  0  0  0  0  0  0  0  0  0  0  0
    7.1585   47.7993   52.2695 H   0  0  0  0  0  0  0  0  0  0  0  0
    8.8648   45.3124   51.8066 H   0  0  0  0  0  0  0  0  0  0  0  0
    8.6360   46.7183   50.6866 H   0  0  0  0  0  0  0  0  0  0  0  0
   10.7927   46.7976   51.9470 H   0  0  0  0  0  0  0  0  0  0  0  0
    9.7037   48.2106   52.2587 H   0  0  0  0  0  0  0  0  0  0  0  0
   10.1325   45.7867   54.0595 H   0  0  0  0  0  0  0  0  0  0  0  0
   10.6715   47.4940   54.3468 H   0  0  0  0  0  0  0  0  0  0  0  0
    8.6242   46.8628   55.6363 H   0  0  0  0  0  0  0  0  0  0  0  0
    8.3882   48.2495   54.4918 H   0  0  0  0  0  0  0  0  0  0  0  0
    5.4200   44.1960   53.2520 H   0  0  0  0  0  0  0  0  0  0  0  0
    4.6081   40.8970   50.7064 H   0  0  0  0  0  0  0  0  0  0  0  0
    6.5437   40.9172   49.1292 H   0  0  0  0  0  0  0  0  0  0  0  0
  1  2  1  0
  2  3  2  0
  3  4  1  0
  4  5  2  0
  5  6  1  0
  6  7  1  0
  7  8  2  0
  8  9  1  0
  9 10  1  0
 10 11  2  0
 11 12  1  0
 12 13  1  0
 13 14  1  0
 14 15  1  0
 15 16  1  0
 16 17  1  0
 17 18  1  0
 18 19  1  0
 19 20  1  0
 20 21  1  0
 21 22  1  0
 14 23  2  0
  5 24  1  0
 24 25  2  0
 25  2  1  0
 23  7  1  0
 13  9  2  0
 22 17  1  0
  3 26  1  0
  4 27  1  0
  6 28  1  0
 11 29  1  0
 12 30  1  0
 16 31  1  0
 16 32  1  0
 17 33  1  0
 18 34  1  0
 18 35  1  0
 19 36  1  0
 19 37  1  0
 20 38  1  0
 20 39  1  0
 21 40  1  0
 21 41  1  0
 22 42  1  0
 22 43  1  0
 23 44  1  0
 24 45  1  0
 25 46  1  0
M  CHG  1  23   1
M  END
>  <meeko>  (6) 
{"is_sidechain": false}

>  <CID>  (6) 
123953120

>  <pose_index>  (6) 
1

>  <docking_score>  (6) 
-9.798

>  <rmsd_to_best_selected>  (6) 
0.0

>  <MWT>  (6) 
342.3979999999997

>  <TPSA>  (6) 
76.97

>  <logP>  (6) 
3.613800000000002

>  <HBD>  (6) 
2

>  <HBA>  (6) 
4

>  <SMILES>  (6) 
[H]c1c([H])c(N([H])c2nc3nc([H])n([H])c3c(OC([H])([H])C3([H])C([H])([H])C([H])([H])C([H])([H])C([H])([H])C3([H])[H])[n+]2[H])c([H])c([H])c1F

$$$$
123953120_pose2
     RDKit          3D

 46 49  0  0  0  0  0  0  0  0999 V2000
    7.8017   43.6754   48.2857 F   0  0  0  0  0  0  0  0  0  0  0  0
    6.7805   43.6376   49.1470 C   0  0  0  0  0  0  0  0  0  0  0  0
    5.8737   44.6877   49.1843 C   0  0  0  0  0  0  0  0  0  0  0  0
    4.8124   44.6458   50.0883 C   0  0  0  0  0  0  0  0  0  0  0  0
    4.6421   43.5490   50.9471 C   0  0  0  0  0  0  0  0  0  0  0  0
    3.5524   43.5641   51.8344 N   0  0  0  0  0  0  0  0  0  0  0  0
    3.4339   44.1804   53.0837 C   0  0  0  0  0  0  0  0  0  0  0  0
    2.5987   43.6298   53.9753 N   0  0  0  0  0  0  0  0  0  0  0  0
    2.5615   44.2685   55.1592 C   0  0  0  0  0  0  0  0  0  0  0  0
    1.7788   43.9304   56.2176 N   0  0  0  0  0  0  0  0  0  0  0  0
    2.0608   44.8139   57.1546 C   0  0  0  0  0  0  0  0  0  0  0  0
    2.9963   45.7215   56.7312 N   0  0  0  0  0  0  0  0  0  0  0  0
    3.3464   45.3718   55.4516 C   0  0  0  0  0  0  0  0  0  0  0  0
    4.2307   45.8520   54.5113 C   0  0  0  0  0  0  0  0  0  0  0  0
    5.0044   46.9608   54.7246 O   0  0  0  0  0  0  0  0  0  0  0  0
    5.7908   47.2601   53.5556 C   0  0  0  0  0  0  0  0  0  0  0  0
    7.1462   46.5444   53.6808 C   0  0  0  0  0  0  0  0  0  0  0  0
    7.5705   45.9394   52.3356 C   0  0  0  0  0  0  0  0  0  0  0  0
    8.9217   45.2365   52.4405 C   0  0  0  0  0  0  0  0  0  0  0  0
   10.0008   46.1703   52.9804 C   0  0  0  0  0  0  0  0  0  0  0  0
    9.5903   46.7844   54.3165 C   0  0  0  0  0  0  0  0  0  0  0  0
    8.2356   47.4821   54.2251 C   0  0  0  0  0  0  0  0  0  0  0  0
    4.2164   45.2330   53.3343 N   0  0  0  0  0  4  0  0  0  0  0  0
    5.5765   42.5010   50.8996 C   0  0  0  0  0  0  0  0  0  0  0  0
    6.6435   42.5468   49.9976 C   0  0  0  0  0  0  0  0  0  0  0  0
    5.9911   45.5460   48.5064 H   0  0  0  0  0  0  0  0  0  0  0  0
    4.0999   45.4829   50.1287 H   0  0  0  0  0  0  0  0  0  0  0  0
    2.6566   43.6213   51.3426 H   0  0  0  0  0  0  0  0  0  0  0  0
    1.6013   44.8216   58.1541 H   0  0  0  0  0  0  0  0  0  0  0  0
    3.3694   46.4865   57.2832 H   0  0  0  0  0  0  0  0  0  0  0  0
    5.2666   46.9065   52.6556 H   0  0  0  0  0  0  0  0  0  0  0  0
    5.9451   48.3462   53.4740 H   0  0  0  0  0  0  0  0  0  0  0  0
    7.0214   45.7264   54.4055 H   0  0  0  0  0  0  0  0  0  0  0  0
    6.8117   45.2097   52.0164 H   0  0  0  0  0  0  0  0  0  0  0  0
    7.6614   46.7551   51.6032 H   0  0  0  0  0  0  0  0  0  0  0  0
    8.8241   44.3749   53.1173 H   0  0  0  0  0  0  0  0  0  0  0  0
    9.2200   44.9128   51.4324 H   0  0  0  0  0  0  0  0  0  0  0  0
   10.9307   45.5995   53.1197 H   0  0  0  0  0  0  0  0  0  0  0  0
   10.1470   46.9850   52.2559 H   0  0  0  0  0  0  0  0  0  0  0  0
    9.5302   45.9869   55.0718 H   0  0  0  0  0  0  0  0  0  0  0  0
   10.3444   47.5352   54.5948 H   0  0  0  0  0  0  0  0  0  0  0  0
    7.9425   47.8235   55.2289 H   0  0  0  0  0  0  0  0  0  0  0  0
    8.3340   48.3306   53.5320 H   0  0  0  0  0  0  0  0  0  0  0  0
    4.8288   45.5457   52.5901 H   0  0  0  0  0  0  0  0  0  0  0  0
    5.4680   41.6400   51.5757 H   0  0  0  0  0  0  0  0  0  0  0  0
    7.3716   41.7231   49.9611 H   0  0  0  0  0  0  0  0  0  0  0  0
  1  2  1  0
  2  3  2  0
  3  4  1  0
  4  5  2  0
  5  6  1  0
  6  7  1  0
  7  8  2  0
  8  9  1  0
  9 10  1  0
 10 11  2  0
 11 12  1  0
 12 13  1  0
 13 14  1  0
 14 15  1  0
 15 16  1  0
 16 17  1  0
 17 18  1  0
 18 19  1  0
 19 20  1  0
 20 21  1  0
 21 22  1  0
 14 23  2  0
  5 24  1  0
 24 25  2  0
 25  2  1  0
 23  7  1  0
 13  9  2  0
 22 17  1  0
  3 26  1  0
  4 27  1  0
  6 28  1  0
 11 29  1  0
 12 30  1  0
 16 31  1  0
 16 32  1  0
 17 33  1  0
 18 34  1  0
 18 35  1  0
 19 36  1  0
 19 37  1  0
 20 38  1  0
 20 39  1  0
 21 40  1  0
 21 41  1  0
 22 42  1  0
 22 43  1  0
 23 44  1  0
 24 45  1  0
 25 46  1  0
M  CHG  1  23   1
M  END
>  <meeko>  (7) 
{"is_sidechain": false}

>  <CID>  (7) 
123953120

>  <pose_index>  (7) 
2

>  <docking_score>  (7) 
-9.726

>  <rmsd_to_best_selected>  (7) 
1.1506725353185678

>  <MWT>  (7) 
342.3979999999997

>  <TPSA>  (7) 
76.97

>  <logP>  (7) 
3.613800000000002

>  <HBD>  (7) 
2

>  <HBA>  (7) 
4

>  <SMILES>  (7) 
[H]c1c([H])c(N([H])c2nc3nc([H])n([H])c3c(OC([H])([H])C3([H])C([H])([H])C([H])([H])C([H])([H])C([H])([H])C3([H])[H])[n+]2[H])c([H])c([H])c1F

$$$$
123953120_pose3
     RDKit          3D

 46 49  0  0  0  0  0  0  0  0999 V2000
    7.9091   44.0939   48.3341 F   0  0  0  0  0  0  0  0  0  0  0  0
    6.9005   43.9391   49.1982 C   0  0  0  0  0  0  0  0  0  0  0  0
    5.8011   44.7841   49.1294 C   0  0  0  0  0  0  0  0  0  0  0  0
    4.7546   44.6216   50.0362 C   0  0  0  0  0  0  0  0  0  0  0  0
    4.7915   43.6047   51.0041 C   0  0  0  0  0  0  0  0  0  0  0  0
    3.7066   43.4907   51.8895 N   0  0  0  0  0  0  0  0  0  0  0  0
    3.4385   44.2024   53.0619 C   0  0  0  0  0  0  0  0  0  0  0  0
    2.2989   43.9296   53.7114 N   0  0  0  0  0  0  0  0  0  0  0  0
    2.1285   44.6386   54.8419 C   0  0  0  0  0  0  0  0  0  0  0  0
    1.0493   44.5715   55.6662 N   0  0  0  0  0  0  0  0  0  0  0  0
    1.3001   45.4247   56.6395 C   0  0  0  0  0  0  0  0  0  0  0  0
    2.5071   46.0505   56.4661 N   0  0  0  0  0  0  0  0  0  0  0  0
    3.0648   45.5400   55.3217 C   0  0  0  0  0  0  0  0  0  0  0  0
    4.2461   45.7293   54.6381 C   0  0  0  0  0  0  0  0  0  0  0  0
    5.1935   46.6334   55.0379 O   0  0  0  0  0  0  0  0  0  0  0  0
    6.4824   45.9989   55.1438 C   0  0  0  0  0  0  0  0  0  0  0  0
    7.2998   46.3388   53.8866 C   0  0  0  0  0  0  0  0  0  0  0  0
    8.4470   47.3005   54.2251 C   0  0  0  0  0  0  0  0  0  0  0  0
    9.2773   47.6360   52.9886 C   0  0  0  0  0  0  0  0  0  0  0  0
    9.8061   46.3780   52.3075 C   0  0  0  0  0  0  0  0  0  0  0  0
    8.6760   45.4098   51.9686 C   0  0  0  0  0  0  0  0  0  0  0  0
    7.8335   45.0727   53.1965 C   0  0  0  0  0  0  0  0  0  0  0  0
    4.3703   45.0519   53.5004 N   0  0  0  0  0  4  0  0  0  0  0  0
    5.9177   42.7674   51.0617 C   0  0  0  0  0  0  0  0  0  0  0  0
    6.9698   42.9352   50.1564 C   0  0  0  0  0  0  0  0  0  0  0  0
    5.7561   45.5748   48.3661 H   0  0  0  0  0  0  0  0  0  0  0  0
    3.8888   45.2988   49.9930 H   0  0  0  0  0  0  0  0  0  0  0  0
    2.8271   43.3060   51.3972 H   0  0  0  0  0  0  0  0  0  0  0  0
    0.6238   45.6114   57.4866 H   0  0  0  0  0  0  0  0  0  0  0  0
    2.9096   46.7399   57.0915 H   0  0  0  0  0  0  0  0  0  0  0  0
    7.0057   46.3692   56.0377 H   0  0  0  0  0  0  0  0  0  0  0  0
    6.3596   44.9091   55.2296 H   0  0  0  0  0  0  0  0  0  0  0  0
    6.6236   46.8407   53.1788 H   0  0  0  0  0  0  0  0  0  0  0  0
    8.0254   48.2298   54.6358 H   0  0  0  0  0  0  0  0  0  0  0  0
    9.1032   46.8109   54.9597 H   0  0  0  0  0  0  0  0  0  0  0  0
    8.6483   48.1899   52.2761 H   0  0  0  0  0  0  0  0  0  0  0  0
   10.1383   48.2419   53.3071 H   0  0  0  0  0  0  0  0  0  0  0  0
   10.3224   46.6640   51.3793 H   0  0  0  0  0  0  0  0  0  0  0  0
   10.4967   45.8744   52.9999 H   0  0  0  0  0  0  0  0  0  0  0  0
    8.0287   45.8699   51.2075 H   0  0  0  0  0  0  0  0  0  0  0  0
    9.1241   44.4776   51.5939 H   0  0  0  0  0  0  0  0  0  0  0  0
    6.9814   44.4511   52.8841 H   0  0  0  0  0  0  0  0  0  0  0  0
    8.4722   44.5356   53.9130 H   0  0  0  0  0  0  0  0  0  0  0  0
    5.2064   45.1571   52.9374 H   0  0  0  0  0  0  0  0  0  0  0  0
    5.9722   41.9754   51.8231 H   0  0  0  0  0  0  0  0  0  0  0  0
    7.8487   42.2753   50.2025 H   0  0  0  0  0  0  0  0  0  0  0  0
  1  2  1  0
  2  3  2  0
  3  4  1  0
  4  5  2  0
  5  6  1  0
  6  7  1  0
  7  8  2  0
  8  9  1  0
  9 10  1  0
 10 11  2  0
 11 12  1  0
 12 13  1  0
 13 14  1  0
 14 15  1  0
 15 16  1  0
 16 17  1  0
 17 18  1  0
 18 19  1  0
 19 20  1  0
 20 21  1  0
 21 22  1  0
 14 23  2  0
  5 24  1  0
 24 25  2  0
 25  2  1  0
 23  7  1  0
 13  9  2  0
 22 17  1  0
  3 26  1  0
  4 27  1  0
  6 28  1  0
 11 29  1  0
 12 30  1  0
 16 31  1  0
 16 32  1  0
 17 33  1  0
 18 34  1  0
 18 35  1  0
 19 36  1  0
 19 37  1  0
 20 38  1  0
 20 39  1  0
 21 40  1  0
 21 41  1  0
 22 42  1  0
 22 43  1  0
 23 44  1  0
 24 45  1  0
 25 46  1  0
M  CHG  1  23   1
M  END
>  <meeko>  (8) 
{"is_sidechain": false}

>  <CID>  (8) 
123953120

>  <pose_index>  (8) 
3

>  <docking_score>  (8) 
-9.55

>  <rmsd_to_best_selected>  (8) 
1.412515301708746

>  <MWT>  (8) 
342.3979999999997

>  <TPSA>  (8) 
76.97

>  <logP>  (8) 
3.613800000000002

>  <HBD>  (8) 
2

>  <HBA>  (8) 
4

>  <SMILES>  (8) 
[H]c1c([H])c(N([H])c2nc3nc([H])n([H])c3c(OC([H])([H])C3([H])C([H])([H])C([H])([H])C([H])([H])C([H])([H])C3([H])[H])[n+]2[H])c([H])c([H])c1F

$$$$
123953120_pose5
     RDKit          3D

 46 49  0  0  0  0  0  0  0  0999 V2000
    7.0533   41.9002   48.4226 F   0  0  0  0  0  0  0  0  0  0  0  0
    6.2351   42.6549   49.1640 C   0  0  0  0  0  0  0  0  0  0  0  0
    4.8923   42.3171   49.2633 C   0  0  0  0  0  0  0  0  0  0  0  0
    4.0419   43.1097   50.0349 C   0  0  0  0  0  0  0  0  0  0  0  0
    4.5311   44.2306   50.7228 C   0  0  0  0  0  0  0  0  0  0  0  0
    3.6259   44.9904   51.4836 N   0  0  0  0  0  0  0  0  0  0  0  0
    3.5908   45.2099   52.8634 C   0  0  0  0  0  0  0  0  0  0  0  0
    2.3907   45.2868   53.4549 N   0  0  0  0  0  0  0  0  0  0  0  0
    2.4453   45.4735   54.7852 C   0  0  0  0  0  0  0  0  0  0  0  0
    1.3751   45.6114   55.6118 N   0  0  0  0  0  0  0  0  0  0  0  0
    1.8832   45.7720   56.8176 C   0  0  0  0  0  0  0  0  0  0  0  0
    3.2539   45.7507   56.7967 N   0  0  0  0  0  0  0  0  0  0  0  0
    3.6327   45.5380   55.4955 C   0  0  0  0  0  0  0  0  0  0  0  0
    4.8336   45.3904   54.8358 C   0  0  0  0  0  0  0  0  0  0  0  0
    6.0420   45.4837   55.4742 O   0  0  0  0  0  0  0  0  0  0  0  0
    6.6100   46.7936   55.2883 C   0  0  0  0  0  0  0  0  0  0  0  0
    7.8162   46.6749   54.3405 C   0  0  0  0  0  0  0  0  0  0  0  0
    8.3710   45.2446   54.3414 C   0  0  0  0  0  0  0  0  0  0  0  0
    9.5607   45.1069   53.3938 C   0  0  0  0  0  0  0  0  0  0  0  0
    9.2074   45.5519   51.9786 C   0  0  0  0  0  0  0  0  0  0  0  0
    8.6484   46.9718   51.9625 C   0  0  0  0  0  0  0  0  0  0  0  0
    7.4622   47.1223   52.9127 C   0  0  0  0  0  0  0  0  0  0  0  0
    4.7556   45.2533   53.5155 N   0  0  0  0  0  4  0  0  0  0  0  0
    5.8915   44.5603   50.6003 C   0  0  0  0  0  0  0  0  0  0  0  0
    6.7413   43.7694   49.8219 C   0  0  0  0  0  0  0  0  0  0  0  0
    4.5022   41.4326   48.7383 H   0  0  0  0  0  0  0  0  0  0  0  0
    2.9747   42.8527   50.1049 H   0  0  0  0  0  0  0  0  0  0  0  0
    3.3375   45.8453   50.9982 H   0  0  0  0  0  0  0  0  0  0  0  0
    1.2814   45.9066   57.7285 H   0  0  0  0  0  0  0  0  0  0  0  0
    3.8586   45.8482   57.6045 H   0  0  0  0  0  0  0  0  0  0  0  0
    5.8576   47.4649   54.8486 H   0  0  0  0  0  0  0  0  0  0  0  0
    6.9315   47.2049   56.2566 H   0  0  0  0  0  0  0  0  0  0  0  0
    8.5987   47.3515   54.7146 H   0  0  0  0  0  0  0  0  0  0  0  0
    8.6938   44.9867   55.3609 H   0  0  0  0  0  0  0  0  0  0  0  0
    7.5762   44.5652   53.9997 H   0  0  0  0  0  0  0  0  0  0  0  0
   10.3879   45.7284   53.7672 H   0  0  0  0  0  0  0  0  0  0  0  0
    9.8504   44.0463   53.3581 H   0  0  0  0  0  0  0  0  0  0  0  0
   10.1137   45.5174   51.3563 H   0  0  0  0  0  0  0  0  0  0  0  0
    8.4365   44.8728   51.5854 H   0  0  0  0  0  0  0  0  0  0  0  0
    9.4410   47.6705   52.2682 H   0  0  0  0  0  0  0  0  0  0  0  0
    8.3009   47.1920   50.9424 H   0  0  0  0  0  0  0  0  0  0  0  0
    7.1559   48.1786   52.9358 H   0  0  0  0  0  0  0  0  0  0  0  0
    6.6459   46.4829   52.5457 H   0  0  0  0  0  0  0  0  0  0  0  0
    5.6008   45.1576   52.9657 H   0  0  0  0  0  0  0  0  0  0  0  0
    6.2895   45.4448   51.1193 H   0  0  0  0  0  0  0  0  0  0  0  0
    7.8065   44.0280   49.7304 H   0  0  0  0  0  0  0  0  0  0  0  0
  1  2  1  0
  2  3  2  0
  3  4  1  0
  4  5  2  0
  5  6  1  0
  6  7  1  0
  7  8  2  0
  8  9  1  0
  9 10  1  0
 10 11  2  0
 11 12  1  0
 12 13  1  0
 13 14  1  0
 14 15  1  0
 15 16  1  0
 16 17  1  0
 17 18  1  0
 18 19  1  0
 19 20  1  0
 20 21  1  0
 21 22  1  0
 14 23  2  0
  5 24  1  0
 24 25  2  0
 25  2  1  0
 23  7  1  0
 13  9  2  0
 22 17  1  0
  3 26  1  0
  4 27  1  0
  6 28  1  0
 11 29  1  0
 12 30  1  0
 16 31  1  0
 16 32  1  0
 17 33  1  0
 18 34  1  0
 18 35  1  0
 19 36  1  0
 19 37  1  0
 20 38  1  0
 20 39  1  0
 21 40  1  0
 21 41  1  0
 22 42  1  0
 22 43  1  0
 23 44  1  0
 24 45  1  0
 25 46  1  0
M  CHG  1  23   1
M  END
>  <meeko>  (9) 
{"is_sidechain": false}

>  <CID>  (9) 
123953120

>  <pose_index>  (9) 
5

>  <docking_score>  (9) 
-9.154

>  <rmsd_to_best_selected>  (9) 
1.274123361795796

>  <MWT>  (9) 
342.3979999999997

>  <TPSA>  (9) 
76.97

>  <logP>  (9) 
3.613800000000002

>  <HBD>  (9) 
2

>  <HBA>  (9) 
4

>  <SMILES>  (9) 
[H]c1c([H])c(N([H])c2nc3nc([H])n([H])c3c(OC([H])([H])C3([H])C([H])([H])C([H])([H])C([H])([H])C([H])([H])C3([H])[H])[n+]2[H])c([H])c([H])c1F

$$$$
123953120_pose9
     RDKit          3D

 46 49  0  0  0  0  0  0  0  0999 V2000
    5.9961   44.6122   47.3274 F   0  0  0  0  0  0  0  0  0  0  0  0
    5.4312   44.3818   48.5166 C   0  0  0  0  0  0  0  0  0  0  0  0
    6.0631   44.8178   49.6736 C   0  0  0  0  0  0  0  0  0  0  0  0
    5.4720   44.5695   50.9127 C   0  0  0  0  0  0  0  0  0  0  0  0
    4.2399   43.9025   51.0012 C   0  0  0  0  0  0  0  0  0  0  0  0
    3.6948   43.6828   52.2776 N   0  0  0  0  0  0  0  0  0  0  0  0
    3.7712   44.4773   53.4250 C   0  0  0  0  0  0  0  0  0  0  0  0
    2.6359   45.0171   53.8884 N   0  0  0  0  0  0  0  0  0  0  0  0
    2.7917   45.7459   55.0083 C   0  0  0  0  0  0  0  0  0  0  0  0
    1.8073   46.4178   55.6612 N   0  0  0  0  0  0  0  0  0  0  0  0
    2.3981   46.9865   56.6932 C   0  0  0  0  0  0  0  0  0  0  0  0
    3.7401   46.7093   56.7254 N   0  0  0  0  0  0  0  0  0  0  0  0
    4.0081   45.8925   55.6556 C   0  0  0  0  0  0  0  0  0  0  0  0
    5.1272   45.2596   55.1620 C   0  0  0  0  0  0  0  0  0  0  0  0
    6.3650   45.3971   55.7318 O   0  0  0  0  0  0  0  0  0  0  0  0
    6.9824   46.6252   55.3053 C   0  0  0  0  0  0  0  0  0  0  0  0
    8.0838   46.2907   54.2850 C   0  0  0  0  0  0  0  0  0  0  0  0
    8.3861   44.7861   54.2822 C   0  0  0  0  0  0  0  0  0  0  0  0
    9.4688   44.4359   53.2643 C   0  0  0  0  0  0  0  0  0  0  0  0
    9.1018   44.9193   51.8644 C   0  0  0  0  0  0  0  0  0  0  0  0
    8.7935   46.4140   51.8533 C   0  0  0  0  0  0  0  0  0  0  0  0
    7.7177   46.7769   52.8740 C   0  0  0  0  0  0  0  0  0  0  0  0
    4.9579   44.5838   54.0286 N   0  0  0  0  0  4  0  0  0  0  0  0
    3.6229   43.4611   49.8187 C   0  0  0  0  0  0  0  0  0  0  0  0
    4.2191   43.7041   48.5787 C   0  0  0  0  0  0  0  0  0  0  0  0
    7.0214   45.3545   49.6137 H   0  0  0  0  0  0  0  0  0  0  0  0
    5.9777   44.9005   51.8318 H   0  0  0  0  0  0  0  0  0  0  0  0
    2.7684   43.2472   52.2296 H   0  0  0  0  0  0  0  0  0  0  0  0
    1.8779   47.6075   57.4373 H   0  0  0  0  0  0  0  0  0  0  0  0
    4.3940   47.0341   57.4293 H   0  0  0  0  0  0  0  0  0  0  0  0
    6.2290   47.2761   54.8376 H   0  0  0  0  0  0  0  0  0  0  0  0
    7.4168   47.1482   56.1700 H   0  0  0  0  0  0  0  0  0  0  0  0
    8.9934   46.8271   54.5932 H   0  0  0  0  0  0  0  0  0  0  0  0
    8.7277   44.4882   55.2845 H   0  0  0  0  0  0  0  0  0  0  0  0
    7.4663   44.2494   54.0069 H   0  0  0  0  0  0  0  0  0  0  0  0
   10.4129   44.9107   53.5697 H   0  0  0  0  0  0  0  0  0  0  0  0
    9.5712   43.3410   53.2342 H   0  0  0  0  0  0  0  0  0  0  0  0
    9.9449   44.7229   51.1857 H   0  0  0  0  0  0  0  0  0  0  0  0
    8.2019   44.3782   51.5366 H   0  0  0  0  0  0  0  0  0  0  0  0
    9.7127   46.9692   52.0917 H   0  0  0  0  0  0  0  0  0  0  0  0
    8.4204   46.6795   50.8531 H   0  0  0  0  0  0  0  0  0  0  0  0
    7.5994   47.8703   52.8934 H   0  0  0  0  0  0  0  0  0  0  0  0
    6.7812   46.2836   52.5743 H   0  0  0  0  0  0  0  0  0  0  0  0
    5.7425   44.1093   53.6001 H   0  0  0  0  0  0  0  0  0  0  0  0
    2.6656   42.9215   49.8693 H   0  0  0  0  0  0  0  0  0  0  0  0
    3.7311   43.3603   47.6548 H   0  0  0  0  0  0  0  0  0  0  0  0
  1  2  1  0
  2  3  2  0
  3  4  1  0
  4  5  2  0
  5  6  1  0
  6  7  1  0
  7  8  2  0
  8  9  1  0
  9 10  1  0
 10 11  2  0
 11 12  1  0
 12 13  1  0
 13 14  1  0
 14 15  1  0
 15 16  1  0
 16 17  1  0
 17 18  1  0
 18 19  1  0
 19 20  1  0
 20 21  1  0
 21 22  1  0
 14 23  2  0
  5 24  1  0
 24 25  2  0
 25  2  1  0
 23  7  1  0
 13  9  2  0
 22 17  1  0
  3 26  1  0
  4 27  1  0
  6 28  1  0
 11 29  1  0
 12 30  1  0
 16 31  1  0
 16 32  1  0
 17 33  1  0
 18 34  1  0
 18 35  1  0
 19 36  1  0
 19 37  1  0
 20 38  1  0
 20 39  1  0
 21 40  1  0
 21 41  1  0
 22 42  1  0
 22 43  1  0
 23 44  1  0
 24 45  1  0
 25 46  1  0
M  CHG  1  23   1
M  END
>  <meeko>  (10) 
{"is_sidechain": false}

>  <CID>  (10) 
123953120

>  <pose_index>  (10) 
9

>  <docking_score>  (10) 
-9.035

>  <rmsd_to_best_selected>  (10) 
1.2233423494101807

>  <MWT>  (10) 
342.3979999999997

>  <TPSA>  (10) 
76.97

>  <logP>  (10) 
3.613800000000002

>  <HBD>  (10) 
2

>  <HBA>  (10) 
4

>  <SMILES>  (10) 
[H]c1c([H])c(N([H])c2nc3nc([H])n([H])c3c(OC([H])([H])C3([H])C([H])([H])C([H])([H])C([H])([H])C([H])([H])C3([H])[H])[n+]2[H])c([H])c([H])c1F

$$$$
46927371_pose3
     RDKit          3D

 58 62  0  0  0  0  0  0  0  0999 V2000
    3.2110   43.4243   52.7379 C   0  0  0  0  0  0  0  0  0  0  0  0
    2.4599   44.5409   53.4143 C   0  0  0  0  0  0  0  0  0  0  0  0
    1.0538   44.5641   53.3037 C   0  0  0  0  0  0  0  0  0  0  0  0
    0.2659   45.5585   53.8990 C   0  0  0  0  0  0  0  0  0  0  0  0
   -1.1247   45.5115   53.7501 N   0  0  0  0  0  0  0  0  0  0  0  0
   -1.9939   46.2195   54.7140 C   0  0  0  0  0  0  0  0  0  0  0  0
   -2.6756   45.2229   55.6618 C   0  0  0  0  0  0  0  0  0  0  0  0
   -3.5128   44.2669   54.9864 O   0  0  0  0  0  0  0  0  0  0  0  0
   -3.1330   44.0505   53.6177 C   0  0  0  0  0  0  0  0  0  0  0  0
   -1.6184   44.1599   53.3804 C   0  0  0  0  0  0  0  0  0  0  0  0
    0.9396   46.5433   54.6245 C   0  0  0  0  0  0  0  0  0  0  0  0
    2.3379   46.5338   54.7439 C   0  0  0  0  0  0  0  0  0  0  0  0
    3.1274   45.5566   54.1308 C   0  0  0  0  0  0  0  0  0  0  0  0
    4.5220   45.5172   54.2634 N   0  0  0  0  0  0  0  0  0  0  0  0
    5.5870   46.0756   53.5551 C   0  0  0  0  0  0  0  0  0  0  0  0
    6.1988   45.3894   52.5670 N   0  0  0  0  0  0  0  0  0  0  0  0
    7.1941   45.9711   51.8725 C   0  0  0  0  0  0  0  0  0  0  0  0
    7.8368   45.3283   50.8372 O   0  0  0  0  0  0  0  0  0  0  0  0
    8.1617   43.9498   51.0891 C   0  0  0  0  0  0  0  0  0  0  0  0
    7.3970   43.0187   50.1266 C   0  0  0  0  0  0  0  0  0  0  0  0
    8.2083   42.6837   48.8792 C   0  0  0  0  0  0  0  0  0  0  0  0
    9.5201   41.9760   49.2281 C   0  0  0  0  0  0  0  0  0  0  0  0
   10.1121   42.4165   50.5672 C   0  0  0  0  0  0  0  0  0  0  0  0
    9.6881   43.8341   50.9239 C   0  0  0  0  0  0  0  0  0  0  0  0
    7.5461   47.2507   52.2085 C   0  0  0  0  0  0  0  0  0  0  0  0
    8.4632   48.1523   51.7547 N   0  0  0  0  0  0  0  0  0  0  0  0
    8.3274   49.2846   52.5124 C   0  0  0  0  0  0  0  0  0  0  0  0
    7.3763   49.1566   53.4131 N   0  0  0  0  0  0  0  0  0  0  0  0
    6.8810   47.8907   53.2287 C   0  0  0  0  0  0  0  0  0  0  0  0
    5.8842   47.3292   53.9254 N   0  0  0  0  0  0  0  0  0  0  0  0
    4.2790   43.4940   52.9921 H   0  0  0  0  0  0  0  0  0  0  0  0
    2.8153   42.4565   53.0796 H   0  0  0  0  0  0  0  0  0  0  0  0
    3.0874   43.5067   51.6479 H   0  0  0  0  0  0  0  0  0  0  0  0
    0.5561   43.7703   52.7274 H   0  0  0  0  0  0  0  0  0  0  0  0
   -1.3842   46.9198   55.3038 H   0  0  0  0  0  0  0  0  0  0  0  0
   -2.7695   46.7655   54.1568 H   0  0  0  0  0  0  0  0  0  0  0  0
   -1.8952   44.6754   56.2107 H   0  0  0  0  0  0  0  0  0  0  0  0
   -3.3258   45.8062   56.3304 H   0  0  0  0  0  0  0  0  0  0  0  0
   -3.4609   43.0436   53.3199 H   0  0  0  0  0  0  0  0  0  0  0  0
   -3.6135   44.8381   53.0188 H   0  0  0  0  0  0  0  0  0  0  0  0
   -1.1016   43.4067   53.9932 H   0  0  0  0  0  0  0  0  0  0  0  0
   -1.4147   43.9890   52.3130 H   0  0  0  0  0  0  0  0  0  0  0  0
    0.3625   47.3427   55.1124 H   0  0  0  0  0  0  0  0  0  0  0  0
    2.8276   47.3194   55.3380 H   0  0  0  0  0  0  0  0  0  0  0  0
    4.8951   44.8386   54.9106 H   0  0  0  0  0  0  0  0  0  0  0  0
    7.8610   43.6382   52.1002 H   0  0  0  0  0  0  0  0  0  0  0  0
    7.1575   42.0838   50.6545 H   0  0  0  0  0  0  0  0  0  0  0  0
    6.4852   43.5429   49.8045 H   0  0  0  0  0  0  0  0  0  0  0  0
    7.6101   42.0261   48.2313 H   0  0  0  0  0  0  0  0  0  0  0  0
    8.4534   43.6260   48.3672 H   0  0  0  0  0  0  0  0  0  0  0  0
    9.3313   40.8931   49.2700 H   0  0  0  0  0  0  0  0  0  0  0  0
   10.2491   42.2419   48.4484 H   0  0  0  0  0  0  0  0  0  0  0  0
    9.7655   41.7307   51.3544 H   0  0  0  0  0  0  0  0  0  0  0  0
   11.2088   42.3942   50.4843 H   0  0  0  0  0  0  0  0  0  0  0  0
   10.1714   44.1232   51.8688 H   0  0  0  0  0  0  0  0  0  0  0  0
    9.9947   44.4994   50.1033 H   0  0  0  0  0  0  0  0  0  0  0  0
    9.1187   48.0062   50.9985 H   0  0  0  0  0  0  0  0  0  0  0  0
    8.9384   50.1903   52.3841 H   0  0  0  0  0  0  0  0  0  0  0  0
  1  2  1  0
  2  3  2  0
  3  4  1  0
  4  5  1  0
  5  6  1  0
  6  7  1  0
  7  8  1  0
  8  9  1  0
  9 10  1  0
  4 11  2  0
 11 12  1  0
 12 13  2  0
 13 14  1  0
 14 15  1  0
 15 16  2  0
 16 17  1  0
 17 18  1  0
 18 19  1  0
 19 20  1  0
 20 21  1  0
 21 22  1  0
 22 23  1  0
 23 24  1  0
 17 25  2  0
 25 26  1  0
 26 27  1  0
 27 28  2  0
 28 29  1  0
 29 30  2  0
 13  2  1  0
 30 15  1  0
 10  5  1  0
 24 19  1  0
 29 25  1  0
  1 31  1  0
  1 32  1  0
  1 33  1  0
  3 34  1  0
  6 35  1  0
  6 36  1  0
  7 37  1  0
  7 38  1  0
  9 39  1  0
  9 40  1  0
 10 41  1  0
 10 42  1  0
 11 43  1  0
 12 44  1  0
 14 45  1  0
 19 46  1  0
 20 47  1  0
 20 48  1  0
 21 49  1  0
 21 50  1  0
 22 51  1  0
 22 52  1  0
 23 53  1  0
 23 54  1  0
 24 55  1  0
 24 56  1  0
 26 57  1  0
 27 58  1  0
M  END
>  <meeko>  (11) 
{"is_sidechain": false}

>  <CID>  (11) 
46927371

>  <pose_index>  (11) 
3

>  <docking_score>  (11) 
-9.453

>  <rmsd_to_best_selected>  (11) 
0.0

>  <MWT>  (11) 
408.50599999999963

>  <TPSA>  (11) 
88.19000000000001

>  <logP>  (11) 
3.953020000000002

>  <HBD>  (11) 
2

>  <HBA>  (11) 
7

>  <SMILES>  (11) 
[H]c1c([H])c(N2C([H])([H])C([H])([H])OC([H])([H])C2([H])[H])c([H])c(C([H])([H])[H])c1N([H])c1nc(OC2([H])C([H])([H])C([H])([H])C([H])([H])C([H])([H])C2([H])[H])c2c(n1)nc([H])n2[H]

$$$$
46927371_pose5
     RDKit          3D

 58 62  0  0  0  0  0  0  0  0999 V2000
    2.4451   45.0811   51.0671 C   0  0  0  0  0  0  0  0  0  0  0  0
    1.9628   45.7194   52.3420 C   0  0  0  0  0  0  0  0  0  0  0  0
    0.7356   45.2842   52.8864 C   0  0  0  0  0  0  0  0  0  0  0  0
    0.2038   45.8135   54.0700 C   0  0  0  0  0  0  0  0  0  0  0  0
   -1.0168   45.3259   54.5519 N   0  0  0  0  0  0  0  0  0  0  0  0
   -1.0982   44.7614   55.9156 C   0  0  0  0  0  0  0  0  0  0  0  0
   -1.2077   43.2323   55.8623 C   0  0  0  0  0  0  0  0  0  0  0  0
   -2.3706   42.7616   55.1578 O   0  0  0  0  0  0  0  0  0  0  0  0
   -2.8705   43.7063   54.1969 C   0  0  0  0  0  0  0  0  0  0  0  0
   -1.7636   44.5433   53.5342 C   0  0  0  0  0  0  0  0  0  0  0  0
    0.9528   46.8057   54.7056 C   0  0  0  0  0  0  0  0  0  0  0  0
    2.1745   47.2510   54.1773 C   0  0  0  0  0  0  0  0  0  0  0  0
    2.6944   46.7404   52.9848 C   0  0  0  0  0  0  0  0  0  0  0  0
    3.9263   47.1535   52.4584 N   0  0  0  0  0  0  0  0  0  0  0  0
    5.2602   46.8678   52.7550 C   0  0  0  0  0  0  0  0  0  0  0  0
    5.8281   45.7114   52.3511 N   0  0  0  0  0  0  0  0  0  0  0  0
    7.1284   45.4834   52.6137 C   0  0  0  0  0  0  0  0  0  0  0  0
    7.7665   44.3332   52.2048 O   0  0  0  0  0  0  0  0  0  0  0  0
    8.2187   44.3431   50.8390 C   0  0  0  0  0  0  0  0  0  0  0  0
    9.6185   43.7071   50.7174 C   0  0  0  0  0  0  0  0  0  0  0  0
    9.5490   42.2206   50.3816 C   0  0  0  0  0  0  0  0  0  0  0  0
    8.8344   41.9705   49.0518 C   0  0  0  0  0  0  0  0  0  0  0  0
    7.7338   42.9883   48.7520 C   0  0  0  0  0  0  0  0  0  0  0  0
    7.1562   43.5766   50.0318 C   0  0  0  0  0  0  0  0  0  0  0  0
    7.8235   46.4487   53.2901 C   0  0  0  0  0  0  0  0  0  0  0  0
    9.1091   46.5914   53.7224 N   0  0  0  0  0  0  0  0  0  0  0  0
    9.1933   47.8055   54.3492 C   0  0  0  0  0  0  0  0  0  0  0  0
    8.0407   48.4420   54.3359 N   0  0  0  0  0  0  0  0  0  0  0  0
    7.1810   47.6035   53.6736 C   0  0  0  0  0  0  0  0  0  0  0  0
    5.8890   47.8492   53.4153 N   0  0  0  0  0  0  0  0  0  0  0  0
    1.7129   45.2624   50.2664 H   0  0  0  0  0  0  0  0  0  0  0  0
    3.4145   45.5165   50.7829 H   0  0  0  0  0  0  0  0  0  0  0  0
    2.5604   43.9979   51.2201 H   0  0  0  0  0  0  0  0  0  0  0  0
    0.1741   44.4979   52.3606 H   0  0  0  0  0  0  0  0  0  0  0  0
   -0.1937   45.0396   56.4764 H   0  0  0  0  0  0  0  0  0  0  0  0
   -1.9933   45.1635   56.4126 H   0  0  0  0  0  0  0  0  0  0  0  0
   -0.3128   42.8370   55.3593 H   0  0  0  0  0  0  0  0  0  0  0  0
   -1.2948   42.8790   56.9004 H   0  0  0  0  0  0  0  0  0  0  0  0
   -3.4083   43.1544   53.4119 H   0  0  0  0  0  0  0  0  0  0  0  0
   -3.5272   44.4040   54.7372 H   0  0  0  0  0  0  0  0  0  0  0  0
   -1.0663   43.8714   53.0122 H   0  0  0  0  0  0  0  0  0  0  0  0
   -2.2268   45.2412   52.8212 H   0  0  0  0  0  0  0  0  0  0  0  0
    0.5775   47.2477   55.6403 H   0  0  0  0  0  0  0  0  0  0  0  0
    2.7394   48.0248   54.7178 H   0  0  0  0  0  0  0  0  0  0  0  0
    3.9070   47.9340   51.8189 H   0  0  0  0  0  0  0  0  0  0  0  0
    8.3271   45.3674   50.4529 H   0  0  0  0  0  0  0  0  0  0  0  0
   10.1747   44.2244   49.9217 H   0  0  0  0  0  0  0  0  0  0  0  0
   10.1220   43.8103   51.6900 H   0  0  0  0  0  0  0  0  0  0  0  0
   10.5722   41.8222   50.3162 H   0  0  0  0  0  0  0  0  0  0  0  0
    8.9783   41.7173   51.1759 H   0  0  0  0  0  0  0  0  0  0  0  0
    9.5786   42.0134   48.2428 H   0  0  0  0  0  0  0  0  0  0  0  0
    8.3532   40.9839   49.1228 H   0  0  0  0  0  0  0  0  0  0  0  0
    8.1549   43.8015   48.1427 H   0  0  0  0  0  0  0  0  0  0  0  0
    6.9250   42.4740   48.2121 H   0  0  0  0  0  0  0  0  0  0  0  0
    6.3412   44.2674   49.7700 H   0  0  0  0  0  0  0  0  0  0  0  0
    6.7874   42.7473   50.6532 H   0  0  0  0  0  0  0  0  0  0  0  0
    9.8570   45.9222   53.5992 H   0  0  0  0  0  0  0  0  0  0  0  0
   10.1116   48.2010   54.8078 H   0  0  0  0  0  0  0  0  0  0  0  0
  1  2  1  0
  2  3  2  0
  3  4  1  0
  4  5  1  0
  5  6  1  0
  6  7  1  0
  7  8  1  0
  8  9  1  0
  9 10  1  0
  4 11  2  0
 11 12  1  0
 12 13  2  0
 13 14  1  0
 14 15  1  0
 15 16  2  0
 16 17  1  0
 17 18  1  0
 18 19  1  0
 19 20  1  0
 20 21  1  0
 21 22  1  0
 22 23  1  0
 23 24  1  0
 17 25  2  0
 25 26  1  0
 26 27  1  0
 27 28  2  0
 28 29  1  0
 29 30  2  0
 13  2  1  0
 30 15  1  0
 10  5  1  0
 24 19  1  0
 29 25  1  0
  1 31  1  0
  1 32  1  0
  1 33  1  0
  3 34  1  0
  6 35  1  0
  6 36  1  0
  7 37  1  0
  7 38  1  0
  9 39  1  0
  9 40  1  0
 10 41  1  0
 10 42  1  0
 11 43  1  0
 12 44  1  0
 14 45  1  0
 19 46  1  0
 20 47  1  0
 20 48  1  0
 21 49  1  0
 21 50  1  0
 22 51  1  0
 22 52  1  0
 23 53  1  0
 23 54  1  0
 24 55  1  0
 24 56  1  0
 26 57  1  0
 27 58  1  0
M  END
>  <meeko>  (12) 
{"is_sidechain": false}

>  <CID>  (12) 
46927371

>  <pose_index>  (12) 
5

>  <docking_score>  (12) 
-9.184

>  <rmsd_to_best_selected>  (12) 
1.621395659662693

>  <MWT>  (12) 
408.50599999999963

>  <TPSA>  (12) 
88.19000000000001

>  <logP>  (12) 
3.953020000000002

>  <HBD>  (12) 
2

>  <HBA>  (12) 
7

>  <SMILES>  (12) 
[H]c1c([H])c(N2C([H])([H])C([H])([H])OC([H])([H])C2([H])[H])c([H])c(C([H])([H])[H])c1N([H])c1nc(OC2([H])C([H])([H])C([H])([H])C([H])([H])C([H])([H])C2([H])[H])c2c(n1)nc([H])n2[H]

$$$$
46927371_pose8
     RDKit          3D

 58 62  0  0  0  0  0  0  0  0999 V2000
    2.8646   44.5972   51.9554 C   0  0  0  0  0  0  0  0  0  0  0  0
    2.3611   44.8827   53.3460 C   0  0  0  0  0  0  0  0  0  0  0  0
    0.9830   45.1315   53.5200 C   0  0  0  0  0  0  0  0  0  0  0  0
    0.4185   45.4040   54.7739 C   0  0  0  0  0  0  0  0  0  0  0  0
   -0.9588   45.6345   54.8694 N   0  0  0  0  0  0  0  0  0  0  0  0
   -1.8793   44.5074   55.1261 C   0  0  0  0  0  0  0  0  0  0  0  0
   -2.6495   44.1366   53.8514 C   0  0  0  0  0  0  0  0  0  0  0  0
   -3.4563   45.2095   53.3340 O   0  0  0  0  0  0  0  0  0  0  0  0
   -2.9846   46.5106   53.7204 C   0  0  0  0  0  0  0  0  0  0  0  0
   -1.4538   46.5901   53.8441 C   0  0  0  0  0  0  0  0  0  0  0  0
    1.2881   45.4152   55.8652 C   0  0  0  0  0  0  0  0  0  0  0  0
    2.6609   45.1701   55.7086 C   0  0  0  0  0  0  0  0  0  0  0  0
    3.2297   44.9220   54.4557 C   0  0  0  0  0  0  0  0  0  0  0  0
    4.5942   44.6471   54.2857 N   0  0  0  0  0  0  0  0  0  0  0  0
    5.6768   45.3589   53.7692 C   0  0  0  0  0  0  0  0  0  0  0  0
    6.5605   44.7713   52.9348 N   0  0  0  0  0  0  0  0  0  0  0  0
    7.5705   45.4963   52.4187 C   0  0  0  0  0  0  0  0  0  0  0  0
    8.4852   44.9546   51.5436 O   0  0  0  0  0  0  0  0  0  0  0  0
    8.1350   43.6608   51.0231 C   0  0  0  0  0  0  0  0  0  0  0  0
    7.5926   43.7738   49.5835 C   0  0  0  0  0  0  0  0  0  0  0  0
    8.6852   43.5801   48.5372 C   0  0  0  0  0  0  0  0  0  0  0  0
    9.3454   42.2041   48.6519 C   0  0  0  0  0  0  0  0  0  0  0  0
    9.3998   41.6736   50.0850 C   0  0  0  0  0  0  0  0  0  0  0  0
    9.4144   42.8089   51.0988 C   0  0  0  0  0  0  0  0  0  0  0  0
    7.6559   46.8153   52.7707 C   0  0  0  0  0  0  0  0  0  0  0  0
    8.4962   47.8455   52.4662 N   0  0  0  0  0  0  0  0  0  0  0  0
    8.0515   48.9461   53.1471 C   0  0  0  0  0  0  0  0  0  0  0  0
    6.9780   48.6777   53.8604 N   0  0  0  0  0  0  0  0  0  0  0  0
    6.7225   47.3506   53.6284 C   0  0  0  0  0  0  0  0  0  0  0  0
    5.7076   46.6449   54.1467 N   0  0  0  0  0  0  0  0  0  0  0  0
    2.0113   44.5155   51.2660 H   0  0  0  0  0  0  0  0  0  0  0  0
    3.5229   45.4155   51.6286 H   0  0  0  0  0  0  0  0  0  0  0  0
    3.4272   43.6519   51.9560 H   0  0  0  0  0  0  0  0  0  0  0  0
    0.3265   45.1109   52.6377 H   0  0  0  0  0  0  0  0  0  0  0  0
   -1.2987   43.6363   55.4637 H   0  0  0  0  0  0  0  0  0  0  0  0
   -2.6002   44.8082   55.9006 H   0  0  0  0  0  0  0  0  0  0  0  0
   -1.9232   43.8438   53.0789 H   0  0  0  0  0  0  0  0  0  0  0  0
   -3.3334   43.3162   54.1145 H   0  0  0  0  0  0  0  0  0  0  0  0
   -3.3122   47.2395   52.9645 H   0  0  0  0  0  0  0  0  0  0  0  0
   -3.4036   46.7275   54.7140 H   0  0  0  0  0  0  0  0  0  0  0  0
   -0.9999   46.3445   52.8727 H   0  0  0  0  0  0  0  0  0  0  0  0
   -1.1762   47.6101   54.1483 H   0  0  0  0  0  0  0  0  0  0  0  0
    0.8890   45.6206   56.8695 H   0  0  0  0  0  0  0  0  0  0  0  0
    3.3085   45.1732   56.5977 H   0  0  0  0  0  0  0  0  0  0  0  0
    4.8821   43.6883   54.4189 H   0  0  0  0  0  0  0  0  0  0  0  0
    7.3279   43.1927   51.6057 H   0  0  0  0  0  0  0  0  0  0  0  0
    6.8201   43.0048   49.4350 H   0  0  0  0  0  0  0  0  0  0  0  0
    7.1808   44.7860   49.4571 H   0  0  0  0  0  0  0  0  0  0  0  0
    8.2408   43.6792   47.5359 H   0  0  0  0  0  0  0  0  0  0  0  0
    9.4580   44.3448   48.7046 H   0  0  0  0  0  0  0  0  0  0  0  0
    8.7752   41.4916   48.0379 H   0  0  0  0  0  0  0  0  0  0  0  0
   10.3841   42.3128   48.3066 H   0  0  0  0  0  0  0  0  0  0  0  0
    8.5169   41.0432   50.2667 H   0  0  0  0  0  0  0  0  0  0  0  0
   10.3262   41.0925   50.2035 H   0  0  0  0  0  0  0  0  0  0  0  0
    9.4988   42.3825   52.1093 H   0  0  0  0  0  0  0  0  0  0  0  0
   10.2717   43.4593   50.8706 H   0  0  0  0  0  0  0  0  0  0  0  0
    9.2968   47.7988   51.8511 H   0  0  0  0  0  0  0  0  0  0  0  0
    8.5323   49.9345   53.1037 H   0  0  0  0  0  0  0  0  0  0  0  0
  1  2  1  0
  2  3  2  0
  3  4  1  0
  4  5  1  0
  5  6  1  0
  6  7  1  0
  7  8  1  0
  8  9  1  0
  9 10  1  0
  4 11  2  0
 11 12  1  0
 12 13  2  0
 13 14  1  0
 14 15  1  0
 15 16  2  0
 16 17  1  0
 17 18  1  0
 18 19  1  0
 19 20  1  0
 20 21  1  0
 21 22  1  0
 22 23  1  0
 23 24  1  0
 17 25  2  0
 25 26  1  0
 26 27  1  0
 27 28  2  0
 28 29  1  0
 29 30  2  0
 13  2  1  0
 30 15  1  0
 10  5  1  0
 24 19  1  0
 29 25  1  0
  1 31  1  0
  1 32  1  0
  1 33  1  0
  3 34  1  0
  6 35  1  0
  6 36  1  0
  7 37  1  0
  7 38  1  0
  9 39  1  0
  9 40  1  0
 10 41  1  0
 10 42  1  0
 11 43  1  0
 12 44  1  0
 14 45  1  0
 19 46  1  0
 20 47  1  0
 20 48  1  0
 21 49  1  0
 21 50  1  0
 22 51  1  0
 22 52  1  0
 23 53  1  0
 23 54  1  0
 24 55  1  0
 24 56  1  0
 26 57  1  0
 27 58  1  0
M  END
>  <meeko>  (13) 
{"is_sidechain": false}

>  <CID>  (13) 
46927371

>  <pose_index>  (13) 
8

>  <docking_score>  (13) 
-8.828

>  <rmsd_to_best_selected>  (13) 
1.4129126679814716

>  <MWT>  (13) 
408.50599999999963

>  <TPSA>  (13) 
88.19000000000001

>  <logP>  (13) 
3.953020000000002

>  <HBD>  (13) 
2

>  <HBA>  (13) 
7

>  <SMILES>  (13) 
[H]c1c([H])c(N2C([H])([H])C([H])([H])OC([H])([H])C2([H])[H])c([H])c(C([H])([H])[H])c1N([H])c1nc(OC2([H])C([H])([H])C([H])([H])C([H])([H])C([H])([H])C2([H])[H])c2c(n1)nc([H])n2[H]

$$$$
46927371_pose9
     RDKit          3D

 58 62  0  0  0  0  0  0  0  0999 V2000
    2.9138   44.0195   51.6607 C   0  0  0  0  0  0  0  0  0  0  0  0
    2.2436   44.9898   52.5972 C   0  0  0  0  0  0  0  0  0  0  0  0
    1.1027   44.5564   53.3045 C   0  0  0  0  0  0  0  0  0  0  0  0
    0.4123   45.3835   54.2028 C   0  0  0  0  0  0  0  0  0  0  0  0
   -0.7094   44.8807   54.8725 N   0  0  0  0  0  0  0  0  0  0  0  0
   -1.6086   43.9253   54.1921 C   0  0  0  0  0  0  0  0  0  0  0  0
   -2.9202   44.6114   53.7867 C   0  0  0  0  0  0  0  0  0  0  0  0
   -3.6596   45.1424   54.9007 O   0  0  0  0  0  0  0  0  0  0  0  0
   -2.8341   45.4413   56.0382 C   0  0  0  0  0  0  0  0  0  0  0  0
   -1.4235   45.9211   55.6573 C   0  0  0  0  0  0  0  0  0  0  0  0
    0.9091   46.6760   54.3750 C   0  0  0  0  0  0  0  0  0  0  0  0
    2.0425   47.1220   53.6779 C   0  0  0  0  0  0  0  0  0  0  0  0
    2.7189   46.3070   52.7651 C   0  0  0  0  0  0  0  0  0  0  0  0
    3.8688   46.7278   52.0829 N   0  0  0  0  0  0  0  0  0  0  0  0
    5.2374   46.6712   52.3491 C   0  0  0  0  0  0  0  0  0  0  0  0
    6.0687   45.9588   51.5583 N   0  0  0  0  0  0  0  0  0  0  0  0
    7.3906   45.9596   51.8140 C   0  0  0  0  0  0  0  0  0  0  0  0
    8.2875   45.2714   51.0260 O   0  0  0  0  0  0  0  0  0  0  0  0
    7.9933   43.8753   50.8499 C   0  0  0  0  0  0  0  0  0  0  0  0
    7.6991   43.5556   49.3707 C   0  0  0  0  0  0  0  0  0  0  0  0
    8.9440   43.0930   48.6208 C   0  0  0  0  0  0  0  0  0  0  0  0
    9.5391   41.8236   49.2356 C   0  0  0  0  0  0  0  0  0  0  0  0
    9.3411   41.7305   50.7480 C   0  0  0  0  0  0  0  0  0  0  0  0
    9.2188   43.1092   51.3800 C   0  0  0  0  0  0  0  0  0  0  0  0
    7.8356   46.6924   52.8810 C   0  0  0  0  0  0  0  0  0  0  0  0
    9.0541   46.9430   53.4405 N   0  0  0  0  0  0  0  0  0  0  0  0
    8.8438   47.7680   54.5134 C   0  0  0  0  0  0  0  0  0  0  0  0
    7.5693   48.0581   54.6631 N   0  0  0  0  0  0  0  0  0  0  0  0
    6.9323   47.3932   53.6461 C   0  0  0  0  0  0  0  0  0  0  0  0
    5.6149   47.4081   53.4020 N   0  0  0  0  0  0  0  0  0  0  0  0
    3.9987   44.2012   51.6593 H   0  0  0  0  0  0  0  0  0  0  0  0
    2.7148   42.9905   51.9948 H   0  0  0  0  0  0  0  0  0  0  0  0
    2.5175   44.1580   50.6440 H   0  0  0  0  0  0  0  0  0  0  0  0
    0.7403   43.5300   53.1455 H   0  0  0  0  0  0  0  0  0  0  0  0
   -1.1098   43.5383   53.2914 H   0  0  0  0  0  0  0  0  0  0  0  0
   -1.8389   43.1015   54.8838 H   0  0  0  0  0  0  0  0  0  0  0  0
   -2.6829   45.4380   53.1008 H   0  0  0  0  0  0  0  0  0  0  0  0
   -3.5530   43.8454   53.3146 H   0  0  0  0  0  0  0  0  0  0  0  0
   -3.3240   46.2305   56.6273 H   0  0  0  0  0  0  0  0  0  0  0  0
   -2.7176   44.5089   56.6100 H   0  0  0  0  0  0  0  0  0  0  0  0
   -1.5044   46.8369   55.0534 H   0  0  0  0  0  0  0  0  0  0  0  0
   -0.8567   46.1205   56.5787 H   0  0  0  0  0  0  0  0  0  0  0  0
    0.4018   47.3596   55.0717 H   0  0  0  0  0  0  0  0  0  0  0  0
    2.4098   48.1437   53.8549 H   0  0  0  0  0  0  0  0  0  0  0  0
    3.7268   47.3343   51.2890 H   0  0  0  0  0  0  0  0  0  0  0  0
    7.0885   43.5781   51.4003 H   0  0  0  0  0  0  0  0  0  0  0  0
    6.9419   42.7590   49.3246 H   0  0  0  0  0  0  0  0  0  0  0  0
    7.3405   44.4784   48.8914 H   0  0  0  0  0  0  0  0  0  0  0  0
    8.6739   42.8890   47.5742 H   0  0  0  0  0  0  0  0  0  0  0  0
    9.6986   43.8907   48.6860 H   0  0  0  0  0  0  0  0  0  0  0  0
    9.0595   40.9515   48.7669 H   0  0  0  0  0  0  0  0  0  0  0  0
   10.6232   41.8513   49.0514 H   0  0  0  0  0  0  0  0  0  0  0  0
    8.4233   41.1602   50.9539 H   0  0  0  0  0  0  0  0  0  0  0  0
   10.2191   41.2289   51.1809 H   0  0  0  0  0  0  0  0  0  0  0  0
    9.1225   42.9939   52.4697 H   0  0  0  0  0  0  0  0  0  0  0  0
   10.1198   43.6848   51.1211 H   0  0  0  0  0  0  0  0  0  0  0  0
    9.9422   46.5849   53.1185 H   0  0  0  0  0  0  0  0  0  0  0  0
    9.6430   48.1423   55.1700 H   0  0  0  0  0  0  0  0  0  0  0  0
  1  2  1  0
  2  3  2  0
  3  4  1  0
  4  5  1  0
  5  6  1  0
  6  7  1  0
  7  8  1  0
  8  9  1  0
  9 10  1  0
  4 11  2  0
 11 12  1  0
 12 13  2  0
 13 14  1  0
 14 15  1  0
 15 16  2  0
 16 17  1  0
 17 18  1  0
 18 19  1  0
 19 20  1  0
 20 21  1  0
 21 22  1  0
 22 23  1  0
 23 24  1  0
 17 25  2  0
 25 26  1  0
 26 27  1  0
 27 28  2  0
 28 29  1  0
 29 30  2  0
 13  2  1  0
 30 15  1  0
 10  5  1  0
 24 19  1  0
 29 25  1  0
  1 31  1  0
  1 32  1  0
  1 33  1  0
  3 34  1  0
  6 35  1  0
  6 36  1  0
  7 37  1  0
  7 38  1  0
  9 39  1  0
  9 40  1  0
 10 41  1  0
 10 42  1  0
 11 43  1  0
 12 44  1  0
 14 45  1  0
 19 46  1  0
 20 47  1  0
 20 48  1  0
 21 49  1  0
 21 50  1  0
 22 51  1  0
 22 52  1  0
 23 53  1  0
 23 54  1  0
 24 55  1  0
 24 56  1  0
 26 57  1  0
 27 58  1  0
M  END
>  <meeko>  (14) 
{"is_sidechain": false}

>  <CID>  (14) 
46927371

>  <pose_index>  (14) 
9

>  <docking_score>  (14) 
-8.734

>  <rmsd_to_best_selected>  (14) 
1.3360190312183262

>  <MWT>  (14) 
408.50599999999963

>  <TPSA>  (14) 
88.19000000000001

>  <logP>  (14) 
3.953020000000002

>  <HBD>  (14) 
2

>  <HBA>  (14) 
7

>  <SMILES>  (14) 
[H]c1c([H])c(N2C([H])([H])C([H])([H])OC([H])([H])C2([H])[H])c([H])c(C([H])([H])[H])c1N([H])c1nc(OC2([H])C([H])([H])C([H])([H])C([H])([H])C([H])([H])C2([H])[H])c2c(n1)nc([H])n2[H]

$$$$
46927371_pose10
     RDKit          3D

 58 62  0  0  0  0  0  0  0  0999 V2000
    2.4749   45.0249   51.1986 C   0  0  0  0  0  0  0  0  0  0  0  0
    2.0698   45.5484   52.5514 C   0  0  0  0  0  0  0  0  0  0  0  0
    0.8707   45.0700   53.1210 C   0  0  0  0  0  0  0  0  0  0  0  0
    0.4096   45.4935   54.3762 C   0  0  0  0  0  0  0  0  0  0  0  0
   -0.7863   44.9694   54.8799 N   0  0  0  0  0  0  0  0  0  0  0  0
   -1.3637   43.7458   54.2832 C   0  0  0  0  0  0  0  0  0  0  0  0
   -2.5887   44.0885   53.4247 C   0  0  0  0  0  0  0  0  0  0  0  0
   -3.6502   44.7206   54.1634 O   0  0  0  0  0  0  0  0  0  0  0  0
   -3.1920   45.4029   55.3413 C   0  0  0  0  0  0  0  0  0  0  0  0
   -1.7923   46.0194   55.1820 C   0  0  0  0  0  0  0  0  0  0  0  0
    1.2007   46.4227   55.0542 C   0  0  0  0  0  0  0  0  0  0  0  0
    2.3950   46.9080   54.5012 C   0  0  0  0  0  0  0  0  0  0  0  0
    2.8438   46.5048   53.2401 C   0  0  0  0  0  0  0  0  0  0  0  0
    4.0486   46.9589   52.6854 N   0  0  0  0  0  0  0  0  0  0  0  0
    5.3946   46.6564   52.8932 C   0  0  0  0  0  0  0  0  0  0  0  0
    5.9114   45.4761   52.4908 N   0  0  0  0  0  0  0  0  0  0  0  0
    7.2233   45.2310   52.6651 C   0  0  0  0  0  0  0  0  0  0  0  0
    7.8090   44.0552   52.2523 O   0  0  0  0  0  0  0  0  0  0  0  0
    7.7916   43.8355   50.8308 C   0  0  0  0  0  0  0  0  0  0  0  0
    9.1363   44.2390   50.1930 C   0  0  0  0  0  0  0  0  0  0  0  0
   10.0955   43.0592   50.0736 C   0  0  0  0  0  0  0  0  0  0  0  0
    9.5150   41.9405   49.2051 C   0  0  0  0  0  0  0  0  0  0  0  0
    7.9932   41.8264   49.2978 C   0  0  0  0  0  0  0  0  0  0  0  0
    7.4763   42.3418   50.6330 C   0  0  0  0  0  0  0  0  0  0  0  0
    7.9837   46.2055   53.2542 C   0  0  0  0  0  0  0  0  0  0  0  0
    9.2994   46.3360   53.5860 N   0  0  0  0  0  0  0  0  0  0  0  0
    9.4502   47.5687   54.1630 C   0  0  0  0  0  0  0  0  0  0  0  0
    8.3118   48.2280   54.2110 N   0  0  0  0  0  0  0  0  0  0  0  0
    7.3911   47.3845   53.6428 C   0  0  0  0  0  0  0  0  0  0  0  0
    6.0883   47.6479   53.4702 N   0  0  0  0  0  0  0  0  0  0  0  0
    3.4357   45.4727   50.9048 H   0  0  0  0  0  0  0  0  0  0  0  0
    2.5792   43.9309   51.2450 H   0  0  0  0  0  0  0  0  0  0  0  0
    1.7056   45.2888   50.4579 H   0  0  0  0  0  0  0  0  0  0  0  0
    0.2743   44.3364   52.5588 H   0  0  0  0  0  0  0  0  0  0  0  0
   -0.6053   43.2588   53.6526 H   0  0  0  0  0  0  0  0  0  0  0  0
   -1.6765   43.0705   55.0932 H   0  0  0  0  0  0  0  0  0  0  0  0
   -2.2710   44.7690   52.6210 H   0  0  0  0  0  0  0  0  0  0  0  0
   -2.9864   43.1395   53.0359 H   0  0  0  0  0  0  0  0  0  0  0  0
   -3.9034   46.2081   55.5772 H   0  0  0  0  0  0  0  0  0  0  0  0
   -3.1292   44.6561   56.1465 H   0  0  0  0  0  0  0  0  0  0  0  0
   -1.8108   46.7490   54.3590 H   0  0  0  0  0  0  0  0  0  0  0  0
   -1.5147   46.5137   56.1247 H   0  0  0  0  0  0  0  0  0  0  0  0
    0.8806   46.7820   56.0434 H   0  0  0  0  0  0  0  0  0  0  0  0
    2.9962   47.6271   55.0768 H   0  0  0  0  0  0  0  0  0  0  0  0
    3.9974   47.7836   52.1051 H   0  0  0  0  0  0  0  0  0  0  0  0
    7.0327   44.4566   50.3324 H   0  0  0  0  0  0  0  0  0  0  0  0
    8.9446   44.6426   49.1879 H   0  0  0  0  0  0  0  0  0  0  0  0
    9.6061   44.9911   50.8440 H   0  0  0  0  0  0  0  0  0  0  0  0
   11.0357   43.4089   49.6223 H   0  0  0  0  0  0  0  0  0  0  0  0
   10.2676   42.6549   51.0821 H   0  0  0  0  0  0  0  0  0  0  0  0
    9.7866   42.1362   48.1573 H   0  0  0  0  0  0  0  0  0  0  0  0
    9.9343   40.9928   49.5739 H   0  0  0  0  0  0  0  0  0  0  0  0
    7.5403   42.4163   48.4873 H   0  0  0  0  0  0  0  0  0  0  0  0
    7.7203   40.7645   49.2083 H   0  0  0  0  0  0  0  0  0  0  0  0
    6.3862   42.1999   50.6714 H   0  0  0  0  0  0  0  0  0  0  0  0
    7.9771   41.7780   51.4338 H   0  0  0  0  0  0  0  0  0  0  0  0
   10.0244   45.6481   53.4330 H   0  0  0  0  0  0  0  0  0  0  0  0
   10.4063   47.9604   54.5405 H   0  0  0  0  0  0  0  0  0  0  0  0
  1  2  1  0
  2  3  2  0
  3  4  1  0
  4  5  1  0
  5  6  1  0
  6  7  1  0
  7  8  1  0
  8  9  1  0
  9 10  1  0
  4 11  2  0
 11 12  1  0
 12 13  2  0
 13 14  1  0
 14 15  1  0
 15 16  2  0
 16 17  1  0
 17 18  1  0
 18 19  1  0
 19 20  1  0
 20 21  1  0
 21 22  1  0
 22 23  1  0
 23 24  1  0
 17 25  2  0
 25 26  1  0
 26 27  1  0
 27 28  2  0
 28 29  1  0
 29 30  2  0
 13  2  1  0
 30 15  1  0
 10  5  1  0
 24 19  1  0
 29 25  1  0
  1 31  1  0
  1 32  1  0
  1 33  1  0
  3 34  1  0
  6 35  1  0
  6 36  1  0
  7 37  1  0
  7 38  1  0
  9 39  1  0
  9 40  1  0
 10 41  1  0
 10 42  1  0
 11 43  1  0
 12 44  1  0
 14 45  1  0
 19 46  1  0
 20 47  1  0
 20 48  1  0
 21 49  1  0
 21 50  1  0
 22 51  1  0
 22 52  1  0
 23 53  1  0
 23 54  1  0
 24 55  1  0
 24 56  1  0
 26 57  1  0
 27 58  1  0
M  END
>  <meeko>  (15) 
{"is_sidechain": false}

>  <CID>  (15) 
46927371

>  <pose_index>  (15) 
10

>  <docking_score>  (15) 
-8.525

>  <rmsd_to_best_selected>  (15) 
1.5325010103757548

>  <MWT>  (15) 
408.50599999999963

>  <TPSA>  (15) 
88.19000000000001

>  <logP>  (15) 
3.953020000000002

>  <HBD>  (15) 
2

>  <HBA>  (15) 
7

>  <SMILES>  (15) 
[H]c1c([H])c(N2C([H])([H])C([H])([H])OC([H])([H])C2([H])[H])c([H])c(C([H])([H])[H])c1N([H])c1nc(OC2([H])C([H])([H])C([H])([H])C([H])([H])C([H])([H])C2([H])[H])c2c(n1)nc([H])n2[H]

$$$$
49863194_pose5
     RDKit          3D

 37 40  0  0  0  0  0  0  0  0999 V2000
    4.9348   40.5972   49.4022 C   0  0  0  0  0  0  0  0  0  0  0  0
    5.8674   41.5989   49.1473 C   0  0  0  0  0  0  0  0  0  0  0  0
    5.8738   42.7690   49.9131 C   0  0  0  0  0  0  0  0  0  0  0  0
    4.9442   42.9524   50.9485 C   0  0  0  0  0  0  0  0  0  0  0  0
    4.9092   44.1623   51.7811 C   0  0  0  0  0  0  0  0  0  0  0  0
    3.8172   44.8184   52.1451 N   0  0  0  0  0  0  0  0  0  0  0  0
    4.2425   45.8721   52.9052 C   0  0  0  0  0  0  0  0  0  0  0  0
    3.4560   46.7966   53.4829 N   0  0  0  0  0  0  0  0  0  0  0  0
    4.1547   47.7118   54.1695 C   0  0  0  0  0  0  0  0  0  0  0  0
    5.4922   47.7938   54.3304 N   0  0  0  0  0  0  0  0  0  0  0  0
    6.2514   46.8526   53.7352 C   0  0  0  0  0  0  0  0  0  0  0  0
    7.6234   46.8490   53.8443 O   0  0  0  0  0  0  0  0  0  0  0  0
    8.3094   47.3323   52.6833 C   0  0  0  0  0  0  0  0  0  0  0  0
    8.9010   48.7184   52.9258 C   0  0  0  0  0  0  0  0  0  0  0  0
   10.1234   48.4674   53.8055 C   0  0  0  0  0  0  0  0  0  0  0  0
   10.5536   47.0269   53.5302 C   0  0  0  0  0  0  0  0  0  0  0  0
    9.5677   46.4834   52.4989 C   0  0  0  0  0  0  0  0  0  0  0  0
    5.6144   45.8739   53.0114 C   0  0  0  0  0  0  0  0  0  0  0  0
    6.0241   44.7898   52.2934 N   0  0  0  0  0  0  0  0  0  0  0  0
    4.0132   41.9298   51.1931 C   0  0  0  0  0  0  0  0  0  0  0  0
    4.0068   40.7620   50.4270 C   0  0  0  0  0  0  0  0  0  0  0  0
    4.9311   39.6791   48.7963 H   0  0  0  0  0  0  0  0  0  0  0  0
    6.6029   41.4694   48.3397 H   0  0  0  0  0  0  0  0  0  0  0  0
    6.6150   43.5538   49.7018 H   0  0  0  0  0  0  0  0  0  0  0  0
    3.5626   48.4955   54.6648 H   0  0  0  0  0  0  0  0  0  0  0  0
    7.5912   47.3171   51.8503 H   0  0  0  0  0  0  0  0  0  0  0  0
    9.1964   49.1862   51.9751 H   0  0  0  0  0  0  0  0  0  0  0  0
    8.1806   49.4023   53.3983 H   0  0  0  0  0  0  0  0  0  0  0  0
   10.9326   49.1646   53.5429 H   0  0  0  0  0  0  0  0  0  0  0  0
    9.8918   48.6218   54.8697 H   0  0  0  0  0  0  0  0  0  0  0  0
   11.5777   47.0037   53.1293 H   0  0  0  0  0  0  0  0  0  0  0  0
   10.5496   46.4224   54.4492 H   0  0  0  0  0  0  0  0  0  0  0  0
    9.9679   46.5986   51.4808 H   0  0  0  0  0  0  0  0  0  0  0  0
    9.3704   45.4100   52.6356 H   0  0  0  0  0  0  0  0  0  0  0  0
    6.9841   44.5086   52.1624 H   0  0  0  0  0  0  0  0  0  0  0  0
    3.2768   42.0506   52.0013 H   0  0  0  0  0  0  0  0  0  0  0  0
    3.2689   39.9727   50.6333 H   0  0  0  0  0  0  0  0  0  0  0  0
  1  2  2  0
  2  3  1  0
  3  4  2  0
  4  5  1  0
  5  6  2  0
  6  7  1  0
  7  8  2  0
  8  9  1  0
  9 10  2  0
 10 11  1  0
 11 12  1  0
 12 13  1  0
 13 14  1  0
 14 15  1  0
 15 16  1  0
 16 17  1  0
 11 18  2  0
 18 19  1  0
  4 20  1  0
 20 21  2  0
 21  1  1  0
 19  5  1  0
 18  7  1  0
 17 13  1  0
  1 22  1  0
  2 23  1  0
  3 24  1  0
  9 25  1  0
 13 26  1  0
 14 27  1  0
 14 28  1  0
 15 29  1  0
 15 30  1  0
 16 31  1  0
 16 32  1  0
 17 33  1  0
 17 34  1  0
 19 35  1  0
 20 36  1  0
 21 37  1  0
M  END
>  <meeko>  (16) 
{"is_sidechain": false}

>  <CID>  (16) 
49863194

>  <pose_index>  (16) 
5

>  <docking_score>  (16) 
-7.967

>  <rmsd_to_best_selected>  (16) 
1.523075323400306

>  <MWT>  (16) 
280.3309999999997

>  <TPSA>  (16) 
63.690000000000005

>  <logP>  (16) 
3.3413000000000013

>  <HBD>  (16) 
1

>  <HBA>  (16) 
4

>  <SMILES>  (16) 
[H]c1nc(OC2([H])C([H])([H])C([H])([H])C([H])([H])C2([H])[H])c2c(n1)nc(-c1c([H])c([H])c([H])c([H])c1[H])n2[H]

$$$$
49863194_pose1
     RDKit          3D

 37 40  0  0  0  0  0  0  0  0999 V2000
    5.2090   41.0980   49.0130 C   0  0  0  0  0  0  0  0  0  0  0  0
    4.1990   41.1290   49.9710 C   0  0  0  0  0  0  0  0  0  0  0  0
    4.1310   42.1800   50.8910 C   0  0  0  0  0  0  0  0  0  0  0  0
    5.0750   43.2180   50.8640 C   0  0  0  0  0  0  0  0  0  0  0  0
    5.0470   44.3430   51.8070 C   0  0  0  0  0  0  0  0  0  0  0  0
    3.9840   45.0770   52.1030 N   0  0  0  0  0  0  0  0  0  0  0  0
    4.4040   46.0060   53.0140 C   0  0  0  0  0  0  0  0  0  0  0  0
    3.6400   46.9530   53.5860 N   0  0  0  0  0  0  0  0  0  0  0  0
    4.3260   47.7210   54.4430 C   0  0  0  0  0  0  0  0  0  0  0  0
    5.6330   47.6450   54.7710 N   0  0  0  0  0  0  0  0  0  0  0  0
    6.3700   46.6860   54.1780 C   0  0  0  0  0  0  0  0  0  0  0  0
    7.7100   46.5260   54.4510 O   0  0  0  0  0  0  0  0  0  0  0  0
    8.5170   47.6670   54.1360 C   0  0  0  0  0  0  0  0  0  0  0  0
   10.0040   47.3140   54.1520 C   0  0  0  0  0  0  0  0  0  0  0  0
   10.2270   46.5330   52.8590 C   0  0  0  0  0  0  0  0  0  0  0  0
    9.1240   46.9770   51.8990 C   0  0  0  0  0  0  0  0  0  0  0  0
    8.2920   48.0050   52.6630 C   0  0  0  0  0  0  0  0  0  0  0  0
    5.7440   45.8510   53.2840 C   0  0  0  0  0  0  0  0  0  0  0  0
    6.1400   44.7990   52.5130 N   0  0  0  0  0  0  0  0  0  0  0  0
    6.0840   43.1720   49.8890 C   0  0  0  0  0  0  0  0  0  0  0  0
    6.1530   42.1210   48.9700 C   0  0  0  0  0  0  0  0  0  0  0  0
    5.2611   40.2683   48.2926 H   0  0  0  0  0  0  0  0  0  0  0  0
    3.4511   40.3230   50.0043 H   0  0  0  0  0  0  0  0  0  0  0  0
    3.3291   42.1932   51.6438 H   0  0  0  0  0  0  0  0  0  0  0  0
    3.7509   48.5144   54.9429 H   0  0  0  0  0  0  0  0  0  0  0  0
    8.2596   48.4580   54.8558 H   0  0  0  0  0  0  0  0  0  0  0  0
   10.6196   48.2255   54.1665 H   0  0  0  0  0  0  0  0  0  0  0  0
   10.2863   46.7350   55.0437 H   0  0  0  0  0  0  0  0  0  0  0  0
   11.2161   46.7664   52.4380 H   0  0  0  0  0  0  0  0  0  0  0  0
   10.1935   45.4476   53.0347 H   0  0  0  0  0  0  0  0  0  0  0  0
    9.5613   47.4322   50.9981 H   0  0  0  0  0  0  0  0  0  0  0  0
    8.5101   46.1262   51.5684 H   0  0  0  0  0  0  0  0  0  0  0  0
    8.6375   49.0256   52.4418 H   0  0  0  0  0  0  0  0  0  0  0  0
    7.2283   47.9695   52.3852 H   0  0  0  0  0  0  0  0  0  0  0  0
    7.0780   44.4300   52.4700 H   0  0  0  0  0  0  0  0  0  0  0  0
    6.8329   43.9766   49.8475 H   0  0  0  0  0  0  0  0  0  0  0  0
    6.9518   42.1020   48.2139 H   0  0  0  0  0  0  0  0  0  0  0  0
  1  2  2  0
  2  3  1  0
  3  4  2  0
  4  5  1  0
  5  6  2  0
  6  7  1  0
  7  8  2  0
  8  9  1  0
  9 10  2  0
 10 11  1  0
 11 12  1  0
 12 13  1  0
 13 14  1  0
 14 15  1  0
 15 16  1  0
 16 17  1  0
 11 18  2  0
 18 19  1  0
  4 20  1  0
 20 21  2  0
 21  1  1  0
 19  5  1  0
 18  7  1  0
 17 13  1  0
  1 22  1  0
  2 23  1  0
  3 24  1  0
  9 25  1  0
 13 26  1  0
 14 27  1  0
 14 28  1  0
 15 29  1  0
 15 30  1  0
 16 31  1  0
 16 32  1  0
 17 33  1  0
 17 34  1  0
 19 35  1  0
 20 36  1  0
 21 37  1  0
M  END
>  <meeko>  (17) 
{"is_sidechain": false}

>  <CID>  (17) 
49863194

>  <pose_index>  (17) 
1

>  <docking_score>  (17) 
-9.572

>  <rmsd_to_best_selected>  (17) 
0.0

>  <MWT>  (17) 
280.3309999999997

>  <TPSA>  (17) 
63.690000000000005

>  <logP>  (17) 
3.3413000000000013

>  <HBD>  (17) 
1

>  <HBA>  (17) 
4

>  <SMILES>  (17) 
[H]c1nc(OC2([H])C([H])([H])C([H])([H])C([H])([H])C2([H])[H])c2c(n1)nc(-c1c([H])c([H])c([H])c([H])c1[H])n2[H]

$$$$
49863194_pose2
     RDKit          3D

 37 40  0  0  0  0  0  0  0  0999 V2000
    4.7706   41.3409   48.7547 C   0  0  0  0  0  0  0  0  0  0  0  0
    3.5845   41.8876   49.2365 C   0  0  0  0  0  0  0  0  0  0  0  0
    3.6094   42.8145   50.2845 C   0  0  0  0  0  0  0  0  0  0  0  0
    4.8255   43.2055   50.8659 C   0  0  0  0  0  0  0  0  0  0  0  0
    4.9052   44.1730   51.9671 C   0  0  0  0  0  0  0  0  0  0  0  0
    3.8848   44.5961   52.6988 N   0  0  0  0  0  0  0  0  0  0  0  0
    4.4042   45.4843   53.5994 C   0  0  0  0  0  0  0  0  0  0  0  0
    3.7133   46.1515   54.5402 N   0  0  0  0  0  0  0  0  0  0  0  0
    4.4902   46.9534   55.2809 C   0  0  0  0  0  0  0  0  0  0  0  0
    5.8226   47.1481   55.1831 N   0  0  0  0  0  0  0  0  0  0  0  0
    6.4844   46.4662   54.2280 C   0  0  0  0  0  0  0  0  0  0  0  0
    7.8437   46.5937   54.0528 O   0  0  0  0  0  0  0  0  0  0  0  0
    8.2330   47.7088   53.2409 C   0  0  0  0  0  0  0  0  0  0  0  0
    9.4504   48.4213   53.8269 C   0  0  0  0  0  0  0  0  0  0  0  0
   10.6259   47.5026   53.5026 C   0  0  0  0  0  0  0  0  0  0  0  0
   10.2029   46.6878   52.2809 C   0  0  0  0  0  0  0  0  0  0  0  0
    8.7934   47.1567   51.9309 C   0  0  0  0  0  0  0  0  0  0  0  0
    5.7626   45.6185   53.4230 C   0  0  0  0  0  0  0  0  0  0  0  0
    6.0664   44.7868   52.3868 N   0  0  0  0  0  0  0  0  0  0  0  0
    6.0114   42.6458   50.3638 C   0  0  0  0  0  0  0  0  0  0  0  0
    5.9862   41.7195   49.3178 C   0  0  0  0  0  0  0  0  0  0  0  0
    4.7474   40.6117   47.9314 H   0  0  0  0  0  0  0  0  0  0  0  0
    2.6237   41.5897   48.7916 H   0  0  0  0  0  0  0  0  0  0  0  0
    2.6662   43.2410   50.6565 H   0  0  0  0  0  0  0  0  0  0  0  0
    3.9776   47.5256   56.0683 H   0  0  0  0  0  0  0  0  0  0  0  0
    7.3578   48.3689   53.1499 H   0  0  0  0  0  0  0  0  0  0  0  0
    9.5867   49.4069   53.3579 H   0  0  0  0  0  0  0  0  0  0  0  0
    9.3481   48.6032   54.9069 H   0  0  0  0  0  0  0  0  0  0  0  0
   11.5227   48.0967   53.2733 H   0  0  0  0  0  0  0  0  0  0  0  0
   10.8734   46.8512   54.3538 H   0  0  0  0  0  0  0  0  0  0  0  0
   10.8878   46.8749   51.4407 H   0  0  0  0  0  0  0  0  0  0  0  0
   10.2288   45.6077   52.4878 H   0  0  0  0  0  0  0  0  0  0  0  0
    8.8255   47.9419   51.1611 H   0  0  0  0  0  0  0  0  0  0  0  0
    8.1738   46.3451   51.5219 H   0  0  0  0  0  0  0  0  0  0  0  0
    6.9877   44.6561   51.9966 H   0  0  0  0  0  0  0  0  0  0  0  0
    6.9764   42.9414   50.8013 H   0  0  0  0  0  0  0  0  0  0  0  0
    6.9258   41.2901   48.9397 H   0  0  0  0  0  0  0  0  0  0  0  0
  1  2  2  0
  2  3  1  0
  3  4  2  0
  4  5  1  0
  5  6  2  0
  6  7  1  0
  7  8  2  0
  8  9  1  0
  9 10  2  0
 10 11  1  0
 11 12  1  0
 12 13  1  0
 13 14  1  0
 14 15  1  0
 15 16  1  0
 16 17  1  0
 11 18  2  0
 18 19  1  0
  4 20  1  0
 20 21  2  0
 21  1  1  0
 19  5  1  0
 18  7  1  0
 17 13  1  0
  1 22  1  0
  2 23  1  0
  3 24  1  0
  9 25  1  0
 13 26  1  0
 14 27  1  0
 14 28  1  0
 15 29  1  0
 15 30  1  0
 16 31  1  0
 16 32  1  0
 17 33  1  0
 17 34  1  0
 19 35  1  0
 20 36  1  0
 21 37  1  0
M  END
>  <meeko>  (18) 
{"is_sidechain": false}

>  <CID>  (18) 
49863194

>  <pose_index>  (18) 
2

>  <docking_score>  (18) 
-8.662

>  <rmsd_to_best_selected>  (18) 
1.2692633167838325

>  <MWT>  (18) 
280.3309999999997

>  <TPSA>  (18) 
63.690000000000005

>  <logP>  (18) 
3.3413000000000013

>  <HBD>  (18) 
1

>  <HBA>  (18) 
4

>  <SMILES>  (18) 
[H]c1nc(OC2([H])C([H])([H])C([H])([H])C([H])([H])C2([H])[H])c2c(n1)nc(-c1c([H])c([H])c([H])c([H])c1[H])n2[H]

$$$$
49863194_pose3
     RDKit          3D

 37 40  0  0  0  0  0  0  0  0999 V2000
    5.1280   41.2062   48.9228 C   0  0  0  0  0  0  0  0  0  0  0  0
    3.9568   41.4066   49.6488 C   0  0  0  0  0  0  0  0  0  0  0  0
    3.8922   42.4078   50.6228 C   0  0  0  0  0  0  0  0  0  0  0  0
    5.0036   43.2237   50.8853 C   0  0  0  0  0  0  0  0  0  0  0  0
    4.9872   44.2890   51.8968 C   0  0  0  0  0  0  0  0  0  0  0  0
    3.9034   44.8794   52.3792 N   0  0  0  0  0  0  0  0  0  0  0  0
    4.3450   45.8014   53.2865 C   0  0  0  0  0  0  0  0  0  0  0  0
    3.5719   46.6248   54.0166 N   0  0  0  0  0  0  0  0  0  0  0  0
    4.2846   47.4210   54.8253 C   0  0  0  0  0  0  0  0  0  0  0  0
    5.6255   47.4774   54.9716 N   0  0  0  0  0  0  0  0  0  0  0  0
    6.3704   46.6407   54.2243 C   0  0  0  0  0  0  0  0  0  0  0  0
    7.7453   46.6203   54.3065 O   0  0  0  0  0  0  0  0  0  0  0  0
    8.3844   47.7958   53.7940 C   0  0  0  0  0  0  0  0  0  0  0  0
    9.8840   47.7811   54.0854 C   0  0  0  0  0  0  0  0  0  0  0  0
   10.4596   46.7742   53.0907 C   0  0  0  0  0  0  0  0  0  0  0  0
    9.4782   46.7284   51.9193 C   0  0  0  0  0  0  0  0  0  0  0  0
    8.3616   47.7098   52.2680 C   0  0  0  0  0  0  0  0  0  0  0  0
    5.7186   45.7879   53.3670 C   0  0  0  0  0  0  0  0  0  0  0  0
    6.1126   44.8286   52.4809 N   0  0  0  0  0  0  0  0  0  0  0  0
    6.1756   43.0096   50.1414 C   0  0  0  0  0  0  0  0  0  0  0  0
    6.2387   42.0085   49.1681 C   0  0  0  0  0  0  0  0  0  0  0  0
    5.1754   40.4167   48.1582 H   0  0  0  0  0  0  0  0  0  0  0  0
    3.0779   40.7741   49.4551 H   0  0  0  0  0  0  0  0  0  0  0  0
    2.9610   42.5575   51.1890 H   0  0  0  0  0  0  0  0  0  0  0  0
    3.7036   48.1165   55.4488 H   0  0  0  0  0  0  0  0  0  0  0  0
    7.8740   48.6647   54.2350 H   0  0  0  0  0  0  0  0  0  0  0  0
   10.3205   48.7780   53.9255 H   0  0  0  0  0  0  0  0  0  0  0  0
   10.1038   47.5097   55.1285 H   0  0  0  0  0  0  0  0  0  0  0  0
   11.4511   47.1023   52.7457 H   0  0  0  0  0  0  0  0  0  0  0  0
   10.5849   45.7823   53.5495 H   0  0  0  0  0  0  0  0  0  0  0  0
    9.9790   47.0340   50.9889 H   0  0  0  0  0  0  0  0  0  0  0  0
    9.0871   45.7127   51.7605 H   0  0  0  0  0  0  0  0  0  0  0  0
    8.5576   48.6955   51.8208 H   0  0  0  0  0  0  0  0  0  0  0  0
    7.3843   47.3825   51.8837 H   0  0  0  0  0  0  0  0  0  0  0  0
    7.0693   44.5710   52.2896 H   0  0  0  0  0  0  0  0  0  0  0  0
    7.0578   43.6397   50.3279 H   0  0  0  0  0  0  0  0  0  0  0  0
    7.1656   41.8548   48.5962 H   0  0  0  0  0  0  0  0  0  0  0  0
  1  2  2  0
  2  3  1  0
  3  4  2  0
  4  5  1  0
  5  6  2  0
  6  7  1  0
  7  8  2  0
  8  9  1  0
  9 10  2  0
 10 11  1  0
 11 12  1  0
 12 13  1  0
 13 14  1  0
 14 15  1  0
 15 16  1  0
 16 17  1  0
 11 18  2  0
 18 19  1  0
  4 20  1  0
 20 21  2  0
 21  1  1  0
 19  5  1  0
 18  7  1  0
 17 13  1  0
  1 22  1  0
  2 23  1  0
  3 24  1  0
  9 25  1  0
 13 26  1  0
 14 27  1  0
 14 28  1  0
 15 29  1  0
 15 30  1  0
 16 31  1  0
 16 32  1  0
 17 33  1  0
 17 34  1  0
 19 35  1  0
 20 36  1  0
 21 37  1  0
M  END
>  <meeko>  (19) 
{"is_sidechain": false}

>  <CID>  (19) 
49863194

>  <pose_index>  (19) 
3

>  <docking_score>  (19) 
-8.169

>  <rmsd_to_best_selected>  (19) 
0.4991998560747182

>  <MWT>  (19) 
280.3309999999997

>  <TPSA>  (19) 
63.690000000000005

>  <logP>  (19) 
3.3413000000000013

>  <HBD>  (19) 
1

>  <HBA>  (19) 
4

>  <SMILES>  (19) 
[H]c1nc(OC2([H])C([H])([H])C([H])([H])C([H])([H])C2([H])[H])c2c(n1)nc(-c1c([H])c([H])c([H])c([H])c1[H])n2[H]

$$$$
49863194_pose4
     RDKit          3D

 37 40  0  0  0  0  0  0  0  0999 V2000
    4.5556   40.3985   49.2278 C   0  0  0  0  0  0  0  0  0  0  0  0
    3.4098   40.9033   49.8359 C   0  0  0  0  0  0  0  0  0  0  0  0
    3.4773   42.0604   50.6189 C   0  0  0  0  0  0  0  0  0  0  0  0
    4.6976   42.7295   50.8038 C   0  0  0  0  0  0  0  0  0  0  0  0
    4.8215   43.9470   51.6150 C   0  0  0  0  0  0  0  0  0  0  0  0
    3.8211   44.5951   52.1937 N   0  0  0  0  0  0  0  0  0  0  0  0
    4.3817   45.6617   52.8403 C   0  0  0  0  0  0  0  0  0  0  0  0
    3.7211   46.5838   53.5617 N   0  0  0  0  0  0  0  0  0  0  0  0
    4.5359   47.5134   54.0809 C   0  0  0  0  0  0  0  0  0  0  0  0
    5.8766   47.6121   53.9579 N   0  0  0  0  0  0  0  0  0  0  0  0
    6.5059   46.6729   53.2261 C   0  0  0  0  0  0  0  0  0  0  0  0
    7.8720   46.6853   53.0471 O   0  0  0  0  0  0  0  0  0  0  0  0
    8.5897   47.4409   54.0298 C   0  0  0  0  0  0  0  0  0  0  0  0
   10.0364   46.9656   54.1453 C   0  0  0  0  0  0  0  0  0  0  0  0
   10.7252   47.5244   52.9027 C   0  0  0  0  0  0  0  0  0  0  0  0
    9.9084   48.7446   52.4782 C   0  0  0  0  0  0  0  0  0  0  0  0
    8.7686   48.8589   53.4871 C   0  0  0  0  0  0  0  0  0  0  0  0
    5.7453   45.6794   52.6584 C   0  0  0  0  0  0  0  0  0  0  0  0
    6.0111   44.5927   51.8800 N   0  0  0  0  0  0  0  0  0  0  0  0
    5.8413   42.2071   50.1793 C   0  0  0  0  0  0  0  0  0  0  0  0
    5.7730   41.0511   49.3981 C   0  0  0  0  0  0  0  0  0  0  0  0
    4.4991   39.4869   48.6147 H   0  0  0  0  0  0  0  0  0  0  0  0
    2.4466   40.3897   49.7000 H   0  0  0  0  0  0  0  0  0  0  0  0
    2.5652   42.4499   51.0945 H   0  0  0  0  0  0  0  0  0  0  0  0
    4.0503   48.2949   54.6837 H   0  0  0  0  0  0  0  0  0  0  0  0
    8.0371   47.3538   54.9769 H   0  0  0  0  0  0  0  0  0  0  0  0
   10.5034   47.3613   55.0593 H   0  0  0  0  0  0  0  0  0  0  0  0
   10.1121   45.8700   54.2073 H   0  0  0  0  0  0  0  0  0  0  0  0
   11.7582   47.8198   53.1390 H   0  0  0  0  0  0  0  0  0  0  0  0
   10.7750   46.7747   52.0993 H   0  0  0  0  0  0  0  0  0  0  0  0
   10.5328   49.6499   52.5026 H   0  0  0  0  0  0  0  0  0  0  0  0
    9.5287   48.6382   51.4513 H   0  0  0  0  0  0  0  0  0  0  0  0
    9.0352   49.5538   54.2970 H   0  0  0  0  0  0  0  0  0  0  0  0
    7.8468   49.2506   53.0322 H   0  0  0  0  0  0  0  0  0  0  0  0
    6.9260   44.3196   51.5535 H   0  0  0  0  0  0  0  0  0  0  0  0
    6.8076   42.7169   50.3073 H   0  0  0  0  0  0  0  0  0  0  0  0
    6.6808   40.6569   48.9180 H   0  0  0  0  0  0  0  0  0  0  0  0
  1  2  2  0
  2  3  1  0
  3  4  2  0
  4  5  1  0
  5  6  2  0
  6  7  1  0
  7  8  2  0
  8  9  1  0
  9 10  2  0
 10 11  1  0
 11 12  1  0
 12 13  1  0
 13 14  1  0
 14 15  1  0
 15 16  1  0
 16 17  1  0
 11 18  2  0
 18 19  1  0
  4 20  1  0
 20 21  2  0
 21  1  1  0
 19  5  1  0
 18  7  1  0
 17 13  1  0
  1 22  1  0
  2 23  1  0
  3 24  1  0
  9 25  1  0
 13 26  1  0
 14 27  1  0
 14 28  1  0
 15 29  1  0
 15 30  1  0
 16 31  1  0
 16 32  1  0
 17 33  1  0
 17 34  1  0
 19 35  1  0
 20 36  1  0
 21 37  1  0
M  END
>  <meeko>  (20) 
{"is_sidechain": false}

>  <CID>  (20) 
49863194

>  <pose_index>  (20) 
4

>  <docking_score>  (20) 
-8.152

>  <rmsd_to_best_selected>  (20) 
1.247501850541357

>  <MWT>  (20) 
280.3309999999997

>  <TPSA>  (20) 
63.690000000000005

>  <logP>  (20) 
3.3413000000000013

>  <HBD>  (20) 
1

>  <HBA>  (20) 
4

>  <SMILES>  (20) 
[H]c1nc(OC2([H])C([H])([H])C([H])([H])C([H])([H])C2([H])[H])c2c(n1)nc(-c1c([H])c([H])c([H])c([H])c1[H])n2[H]

$$$$
49863194_pose6
     RDKit          3D

 37 40  0  0  0  0  0  0  0  0999 V2000
    5.4393   40.7354   49.5223 C   0  0  0  0  0  0  0  0  0  0  0  0
    4.1600   41.2369   49.7486 C   0  0  0  0  0  0  0  0  0  0  0  0
    3.9805   42.3927   50.5152 C   0  0  0  0  0  0  0  0  0  0  0  0
    5.0823   43.0646   51.0651 C   0  0  0  0  0  0  0  0  0  0  0  0
    4.9464   44.2829   51.8758 C   0  0  0  0  0  0  0  0  0  0  0  0
    3.8768   44.6291   52.5766 N   0  0  0  0  0  0  0  0  0  0  0  0
    4.1814   45.8224   53.1693 C   0  0  0  0  0  0  0  0  0  0  0  0
    3.3723   46.5316   53.9771 N   0  0  0  0  0  0  0  0  0  0  0  0
    3.9422   47.6642   54.4125 C   0  0  0  0  0  0  0  0  0  0  0  0
    5.1758   48.1384   54.1364 N   0  0  0  0  0  0  0  0  0  0  0  0
    5.9579   47.4044   53.3218 C   0  0  0  0  0  0  0  0  0  0  0  0
    7.2324   47.8023   52.9853 O   0  0  0  0  0  0  0  0  0  0  0  0
    8.2722   47.0832   53.6579 C   0  0  0  0  0  0  0  0  0  0  0  0
    9.0383   46.1836   52.6898 C   0  0  0  0  0  0  0  0  0  0  0  0
    9.9224   47.1402   51.8935 C   0  0  0  0  0  0  0  0  0  0  0  0
   10.1222   48.3695   52.7801 C   0  0  0  0  0  0  0  0  0  0  0  0
    9.3474   48.0911   54.0649 C   0  0  0  0  0  0  0  0  0  0  0  0
    5.4519   46.2257   52.8306 C   0  0  0  0  0  0  0  0  0  0  0  0
    5.9243   45.2447   52.0098 N   0  0  0  0  0  0  0  0  0  0  0  0
    6.3643   42.5480   50.8229 C   0  0  0  0  0  0  0  0  0  0  0  0
    6.5441   41.3917   50.0580 C   0  0  0  0  0  0  0  0  0  0  0  0
    5.5764   39.8238   48.9221 H   0  0  0  0  0  0  0  0  0  0  0  0
    3.2866   40.7214   49.3225 H   0  0  0  0  0  0  0  0  0  0  0  0
    2.9652   42.7788   50.6887 H   0  0  0  0  0  0  0  0  0  0  0  0
    3.3267   48.2860   55.0792 H   0  0  0  0  0  0  0  0  0  0  0  0
    7.8027   46.5216   54.4790 H   0  0  0  0  0  0  0  0  0  0  0  0
    9.6517   45.4546   53.2397 H   0  0  0  0  0  0  0  0  0  0  0  0
    8.3672   45.5995   52.0430 H   0  0  0  0  0  0  0  0  0  0  0  0
   10.8909   46.6688   51.6705 H   0  0  0  0  0  0  0  0  0  0  0  0
    9.4601   47.4087   50.9322 H   0  0  0  0  0  0  0  0  0  0  0  0
   11.1903   48.5120   53.0010 H   0  0  0  0  0  0  0  0  0  0  0  0
    9.7668   49.2854   52.2853 H   0  0  0  0  0  0  0  0  0  0  0  0
   10.0094   47.6636   54.8324 H   0  0  0  0  0  0  0  0  0  0  0  0
    8.9178   49.0060   54.4988 H   0  0  0  0  0  0  0  0  0  0  0  0
    6.8350   45.2391   51.5747 H   0  0  0  0  0  0  0  0  0  0  0  0
    7.2424   43.0613   51.2419 H   0  0  0  0  0  0  0  0  0  0  0  0
    7.5568   41.0011   49.8797 H   0  0  0  0  0  0  0  0  0  0  0  0
  1  2  2  0
  2  3  1  0
  3  4  2  0
  4  5  1  0
  5  6  2  0
  6  7  1  0
  7  8  2  0
  8  9  1  0
  9 10  2  0
 10 11  1  0
 11 12  1  0
 12 13  1  0
 13 14  1  0
 14 15  1  0
 15 16  1  0
 16 17  1  0
 11 18  2  0
 18 19  1  0
  4 20  1  0
 20 21  2  0
 21  1  1  0
 19  5  1  0
 18  7  1  0
 17 13  1  0
  1 22  1  0
  2 23  1  0
  3 24  1  0
  9 25  1  0
 13 26  1  0
 14 27  1  0
 14 28  1  0
 15 29  1  0
 15 30  1  0
 16 31  1  0
 16 32  1  0
 17 33  1  0
 17 34  1  0
 19 35  1  0
 20 36  1  0
 21 37  1  0
M  END
>  <meeko>  (21) 
{"is_sidechain": false}

>  <CID>  (21) 
49863194

>  <pose_index>  (21) 
6

>  <docking_score>  (21) 
-7.958

>  <rmsd_to_best_selected>  (21) 
1.4852985906297616

>  <MWT>  (21) 
280.3309999999997

>  <TPSA>  (21) 
63.690000000000005

>  <logP>  (21) 
3.3413000000000013

>  <HBD>  (21) 
1

>  <HBA>  (21) 
4

>  <SMILES>  (21) 
[H]c1nc(OC2([H])C([H])([H])C([H])([H])C([H])([H])C2([H])[H])c2c(n1)nc(-c1c([H])c([H])c([H])c([H])c1[H])n2[H]

$$$$
49863194_pose7
     RDKit          3D

 37 40  0  0  0  0  0  0  0  0999 V2000
    4.6838   40.5093   49.3943 C   0  0  0  0  0  0  0  0  0  0  0  0
    5.8886   40.7924   50.0305 C   0  0  0  0  0  0  0  0  0  0  0  0
    5.9989   41.9056   50.8705 C   0  0  0  0  0  0  0  0  0  0  0  0
    4.9007   42.7515   51.0862 C   0  0  0  0  0  0  0  0  0  0  0  0
    4.9647   43.9310   51.9578 C   0  0  0  0  0  0  0  0  0  0  0  0
    3.9268   44.5373   52.5153 N   0  0  0  0  0  0  0  0  0  0  0  0
    4.4375   45.5799   53.2372 C   0  0  0  0  0  0  0  0  0  0  0  0
    3.7270   46.4586   53.9671 N   0  0  0  0  0  0  0  0  0  0  0  0
    4.4997   47.3731   54.5678 C   0  0  0  0  0  0  0  0  0  0  0  0
    5.8435   47.4968   54.5169 N   0  0  0  0  0  0  0  0  0  0  0  0
    6.5232   46.6022   53.7738 C   0  0  0  0  0  0  0  0  0  0  0  0
    7.8958   46.6424   53.6635 O   0  0  0  0  0  0  0  0  0  0  0  0
    8.3745   47.3328   52.5036 C   0  0  0  0  0  0  0  0  0  0  0  0
    8.5725   48.8207   52.7873 C   0  0  0  0  0  0  0  0  0  0  0  0
    9.8519   48.8870   53.6171 C   0  0  0  0  0  0  0  0  0  0  0  0
   10.6493   47.6307   53.2683 C   0  0  0  0  0  0  0  0  0  0  0  0
    9.8084   46.8701   52.2453 C   0  0  0  0  0  0  0  0  0  0  0  0
    5.8079   45.6260   53.1242 C   0  0  0  0  0  0  0  0  0  0  0  0
    6.1288   44.5799   52.3102 N   0  0  0  0  0  0  0  0  0  0  0  0
    3.6922   42.4476   50.4386 C   0  0  0  0  0  0  0  0  0  0  0  0
    3.5828   41.3361   49.5988 C   0  0  0  0  0  0  0  0  0  0  0  0
    4.6018   39.6350   48.7319 H   0  0  0  0  0  0  0  0  0  0  0  0
    6.7583   40.1377   49.8722 H   0  0  0  0  0  0  0  0  0  0  0  0
    6.9568   42.1199   51.3670 H   0  0  0  0  0  0  0  0  0  0  0  0
    3.9722   48.1187   55.1808 H   0  0  0  0  0  0  0  0  0  0  0  0
    7.6549   47.1471   51.6927 H   0  0  0  0  0  0  0  0  0  0  0  0
    8.6886   49.3829   51.8489 H   0  0  0  0  0  0  0  0  0  0  0  0
    7.7123   49.2640   53.3103 H   0  0  0  0  0  0  0  0  0  0  0  0
   10.4277   49.7882   53.3597 H   0  0  0  0  0  0  0  0  0  0  0  0
    9.6305   48.9363   54.6935 H   0  0  0  0  0  0  0  0  0  0  0  0
   11.6231   47.9037   52.8357 H   0  0  0  0  0  0  0  0  0  0  0  0
   10.8492   47.0192   54.1606 H   0  0  0  0  0  0  0  0  0  0  0  0
   10.1197   47.1239   51.2212 H   0  0  0  0  0  0  0  0  0  0  0  0
    9.9187   45.7800   52.3426 H   0  0  0  0  0  0  0  0  0  0  0  0
    7.0630   44.3365   52.0174 H   0  0  0  0  0  0  0  0  0  0  0  0
    2.8171   43.0953   50.5952 H   0  0  0  0  0  0  0  0  0  0  0  0
    2.6277   41.1148   49.0999 H   0  0  0  0  0  0  0  0  0  0  0  0
  1  2  2  0
  2  3  1  0
  3  4  2  0
  4  5  1  0
  5  6  2  0
  6  7  1  0
  7  8  2  0
  8  9  1  0
  9 10  2  0
 10 11  1  0
 11 12  1  0
 12 13  1  0
 13 14  1  0
 14 15  1  0
 15 16  1  0
 16 17  1  0
 11 18  2  0
 18 19  1  0
  4 20  1  0
 20 21  2  0
 21  1  1  0
 19  5  1  0
 18  7  1  0
 17 13  1  0
  1 22  1  0
  2 23  1  0
  3 24  1  0
  9 25  1  0
 13 26  1  0
 14 27  1  0
 14 28  1  0
 15 29  1  0
 15 30  1  0
 16 31  1  0
 16 32  1  0
 17 33  1  0
 17 34  1  0
 19 35  1  0
 20 36  1  0
 21 37  1  0
M  END
>  <meeko>  (22) 
{"is_sidechain": false}

>  <CID>  (22) 
49863194

>  <pose_index>  (22) 
7

>  <docking_score>  (22) 
-7.647

>  <rmsd_to_best_selected>  (22) 
1.7412559638818077

>  <MWT>  (22) 
280.3309999999997

>  <TPSA>  (22) 
63.690000000000005

>  <logP>  (22) 
3.3413000000000013

>  <HBD>  (22) 
1

>  <HBA>  (22) 
4

>  <SMILES>  (22) 
[H]c1nc(OC2([H])C([H])([H])C([H])([H])C([H])([H])C2([H])[H])c2c(n1)nc(-c1c([H])c([H])c([H])c([H])c1[H])n2[H]

$$$$
49863194_pose8
     RDKit          3D

 37 40  0  0  0  0  0  0  0  0999 V2000
    5.2386   40.5524   49.5739 C   0  0  0  0  0  0  0  0  0  0  0  0
    4.1363   40.7306   50.4048 C   0  0  0  0  0  0  0  0  0  0  0  0
    4.0144   41.8906   51.1782 C   0  0  0  0  0  0  0  0  0  0  0  0
    4.9987   42.8901   51.1280 C   0  0  0  0  0  0  0  0  0  0  0  0
    4.9174   44.1256   51.9188 C   0  0  0  0  0  0  0  0  0  0  0  0
    3.7999   44.7305   52.2937 N   0  0  0  0  0  0  0  0  0  0  0  0
    4.1844   45.8344   53.0032 C   0  0  0  0  0  0  0  0  0  0  0  0
    3.3623   46.7329   53.5727 N   0  0  0  0  0  0  0  0  0  0  0  0
    4.0260   47.7102   54.2054 C   0  0  0  0  0  0  0  0  0  0  0  0
    5.3611   47.8752   54.3206 N   0  0  0  0  0  0  0  0  0  0  0  0
    6.1558   46.9589   53.7363 C   0  0  0  0  0  0  0  0  0  0  0  0
    7.5290   47.0377   53.8025 O   0  0  0  0  0  0  0  0  0  0  0  0
    8.1389   47.6714   52.6721 C   0  0  0  0  0  0  0  0  0  0  0  0
    9.0234   48.8397   53.1027 C   0  0  0  0  0  0  0  0  0  0  0  0
   10.2751   48.1818   53.6797 C   0  0  0  0  0  0  0  0  0  0  0  0
   10.3677   46.8025   53.0274 C   0  0  0  0  0  0  0  0  0  0  0  0
    9.1660   46.6996   52.0910 C   0  0  0  0  0  0  0  0  0  0  0  0
    5.5568   45.9190   53.0666 C   0  0  0  0  0  0  0  0  0  0  0  0
    6.0086   44.8345   52.3748 N   0  0  0  0  0  0  0  0  0  0  0  0
    6.1011   42.6946   50.2824 C   0  0  0  0  0  0  0  0  0  0  0  0
    6.2225   41.5350   49.5111 C   0  0  0  0  0  0  0  0  0  0  0  0
    5.3319   39.6384   48.9690 H   0  0  0  0  0  0  0  0  0  0  0  0
    3.3571   39.9557   50.4539 H   0  0  0  0  0  0  0  0  0  0  0  0
    3.1390   42.0203   51.8316 H   0  0  0  0  0  0  0  0  0  0  0  0
    3.4039   48.4753   54.6929 H   0  0  0  0  0  0  0  0  0  0  0  0
    7.3291   47.9787   51.9940 H   0  0  0  0  0  0  0  0  0  0  0  0
    9.2795   49.4717   52.2396 H   0  0  0  0  0  0  0  0  0  0  0  0
    8.5235   49.4959   53.8303 H   0  0  0  0  0  0  0  0  0  0  0  0
   11.1665   48.7792   53.4377 H   0  0  0  0  0  0  0  0  0  0  0  0
   10.2202   48.1053   54.7757 H   0  0  0  0  0  0  0  0  0  0  0  0
   11.3047   46.7105   52.4586 H   0  0  0  0  0  0  0  0  0  0  0  0
   10.3631   45.9995   53.7793 H   0  0  0  0  0  0  0  0  0  0  0  0
    9.4443   46.9946   51.0685 H   0  0  0  0  0  0  0  0  0  0  0  0
    8.7769   45.6730   52.0236 H   0  0  0  0  0  0  0  0  0  0  0  0
    6.9788   44.6036   52.2231 H   0  0  0  0  0  0  0  0  0  0  0  0
    6.8827   43.4665   50.2254 H   0  0  0  0  0  0  0  0  0  0  0  0
    7.0949   41.3992   48.8550 H   0  0  0  0  0  0  0  0  0  0  0  0
  1  2  2  0
  2  3  1  0
  3  4  2  0
  4  5  1  0
  5  6  2  0
  6  7  1  0
  7  8  2  0
  8  9  1  0
  9 10  2  0
 10 11  1  0
 11 12  1  0
 12 13  1  0
 13 14  1  0
 14 15  1  0
 15 16  1  0
 16 17  1  0
 11 18  2  0
 18 19  1  0
  4 20  1  0
 20 21  2  0
 21  1  1  0
 19  5  1  0
 18  7  1  0
 17 13  1  0
  1 22  1  0
  2 23  1  0
  3 24  1  0
  9 25  1  0
 13 26  1  0
 14 27  1  0
 14 28  1  0
 15 29  1  0
 15 30  1  0
 16 31  1  0
 16 32  1  0
 17 33  1  0
 17 34  1  0
 19 35  1  0
 20 36  1  0
 21 37  1  0
M  END
>  <meeko>  (23) 
{"is_sidechain": false}

>  <CID>  (23) 
49863194

>  <pose_index>  (23) 
8

>  <docking_score>  (23) 
-7.53

>  <rmsd_to_best_selected>  (23) 
1.4171604479022852

>  <MWT>  (23) 
280.3309999999997

>  <TPSA>  (23) 
63.690000000000005

>  <logP>  (23) 
3.3413000000000013

>  <HBD>  (23) 
1

>  <HBA>  (23) 
4

>  <SMILES>  (23) 
[H]c1nc(OC2([H])C([H])([H])C([H])([H])C([H])([H])C2([H])[H])c2c(n1)nc(-c1c([H])c([H])c([H])c([H])c1[H])n2[H]

$$$$
49863194_pose9
     RDKit          3D

 37 40  0  0  0  0  0  0  0  0999 V2000
    4.9082   40.1822   49.7540 C   0  0  0  0  0  0  0  0  0  0  0  0
    3.9460   40.4214   50.7318 C   0  0  0  0  0  0  0  0  0  0  0  0
    3.9143   41.6471   51.4051 C   0  0  0  0  0  0  0  0  0  0  0  0
    4.8472   42.6518   51.1061 C   0  0  0  0  0  0  0  0  0  0  0  0
    4.8556   43.9550   51.7842 C   0  0  0  0  0  0  0  0  0  0  0  0
    3.7835   44.6597   52.1178 N   0  0  0  0  0  0  0  0  0  0  0  0
    4.2483   45.7955   52.7204 C   0  0  0  0  0  0  0  0  0  0  0  0
    3.4922   46.7913   53.2174 N   0  0  0  0  0  0  0  0  0  0  0  0
    4.2255   47.7784   53.7514 C   0  0  0  0  0  0  0  0  0  0  0  0
    5.5700   47.8695   53.8344 N   0  0  0  0  0  0  0  0  0  0  0  0
    6.2959   46.8567   53.3239 C   0  0  0  0  0  0  0  0  0  0  0  0
    7.6728   46.8563   53.3657 O   0  0  0  0  0  0  0  0  0  0  0  0
    8.2813   48.0105   52.7762 C   0  0  0  0  0  0  0  0  0  0  0  0
    9.0269   48.8384   53.8221 C   0  0  0  0  0  0  0  0  0  0  0  0
   10.3015   48.0455   54.1023 C   0  0  0  0  0  0  0  0  0  0  0  0
   10.5600   47.2022   52.8545 C   0  0  0  0  0  0  0  0  0  0  0  0
    9.4271   47.5292   51.8846 C   0  0  0  0  0  0  0  0  0  0  0  0
    5.6235   45.8010   52.7585 C   0  0  0  0  0  0  0  0  0  0  0  0
    5.9956   44.6331   52.1612 N   0  0  0  0  0  0  0  0  0  0  0  0
    5.8066   42.3941   50.1149 C   0  0  0  0  0  0  0  0  0  0  0  0
    5.8394   41.1691   49.4433 C   0  0  0  0  0  0  0  0  0  0  0  0
    4.9323   39.2160   49.2286 H   0  0  0  0  0  0  0  0  0  0  0  0
    3.2077   39.6432   50.9757 H   0  0  0  0  0  0  0  0  0  0  0  0
    3.1506   41.8252   52.1765 H   0  0  0  0  0  0  0  0  0  0  0  0
    3.6600   48.6212   54.1757 H   0  0  0  0  0  0  0  0  0  0  0  0
    7.4850   48.5785   52.2729 H   0  0  0  0  0  0  0  0  0  0  0  0
    9.2690   49.8362   53.4274 H   0  0  0  0  0  0  0  0  0  0  0  0
    8.4281   49.0010   54.7304 H   0  0  0  0  0  0  0  0  0  0  0  0
   11.1443   48.7290   54.2823 H   0  0  0  0  0  0  0  0  0  0  0  0
   10.1937   47.4154   54.9975 H   0  0  0  0  0  0  0  0  0  0  0  0
   11.5315   47.4646   52.4102 H   0  0  0  0  0  0  0  0  0  0  0  0
   10.5900   46.1287   53.0924 H   0  0  0  0  0  0  0  0  0  0  0  0
    9.7322   48.3203   51.1838 H   0  0  0  0  0  0  0  0  0  0  0  0
    9.1412   46.6626   51.2703 H   0  0  0  0  0  0  0  0  0  0  0  0
    6.9480   44.3305   52.0180 H   0  0  0  0  0  0  0  0  0  0  0  0
    6.5451   43.1692   49.8623 H   0  0  0  0  0  0  0  0  0  0  0  0
    6.6000   40.9849   48.6703 H   0  0  0  0  0  0  0  0  0  0  0  0
  1  2  2  0
  2  3  1  0
  3  4  2  0
  4  5  1  0
  5  6  2  0
  6  7  1  0
  7  8  2  0
  8  9  1  0
  9 10  2  0
 10 11  1  0
 11 12  1  0
 12 13  1  0
 13 14  1  0
 14 15  1  0
 15 16  1  0
 16 17  1  0
 11 18  2  0
 18 19  1  0
  4 20  1  0
 20 21  2  0
 21  1  1  0
 19  5  1  0
 18  7  1  0
 17 13  1  0
  1 22  1  0
  2 23  1  0
  3 24  1  0
  9 25  1  0
 13 26  1  0
 14 27  1  0
 14 28  1  0
 15 29  1  0
 15 30  1  0
 16 31  1  0
 16 32  1  0
 17 33  1  0
 17 34  1  0
 19 35  1  0
 20 36  1  0
 21 37  1  0
M  END
>  <meeko>  (24) 
{"is_sidechain": false}

>  <CID>  (24) 
49863194

>  <pose_index>  (24) 
9

>  <docking_score>  (24) 
-7.496

>  <rmsd_to_best_selected>  (24) 
1.2784345864613214

>  <MWT>  (24) 
280.3309999999997

>  <TPSA>  (24) 
63.690000000000005

>  <logP>  (24) 
3.3413000000000013

>  <HBD>  (24) 
1

>  <HBA>  (24) 
4

>  <SMILES>  (24) 
[H]c1nc(OC2([H])C([H])([H])C([H])([H])C([H])([H])C2([H])[H])c2c(n1)nc(-c1c([H])c([H])c([H])c([H])c1[H])n2[H]

$$$$
49863194_pose10
     RDKit          3D

 37 40  0  0  0  0  0  0  0  0999 V2000
    4.3322   40.5034   49.3574 C   0  0  0  0  0  0  0  0  0  0  0  0
    5.6231   41.0059   49.4975 C   0  0  0  0  0  0  0  0  0  0  0  0
    5.8690   42.0977   50.3377 C   0  0  0  0  0  0  0  0  0  0  0  0
    4.8215   42.7021   51.0498 C   0  0  0  0  0  0  0  0  0  0  0  0
    5.0274   43.8500   51.9435 C   0  0  0  0  0  0  0  0  0  0  0  0
    4.0755   44.5050   52.5910 N   0  0  0  0  0  0  0  0  0  0  0  0
    4.7057   45.4914   53.2979 C   0  0  0  0  0  0  0  0  0  0  0  0
    4.1097   46.3920   54.0997 N   0  0  0  0  0  0  0  0  0  0  0  0
    4.9829   47.2374   54.6630 C   0  0  0  0  0  0  0  0  0  0  0  0
    6.3239   47.2758   54.5151 N   0  0  0  0  0  0  0  0  0  0  0  0
    6.8881   46.3618   53.7025 C   0  0  0  0  0  0  0  0  0  0  0  0
    8.2476   46.3161   53.4914 O   0  0  0  0  0  0  0  0  0  0  0  0
    8.6995   47.1015   52.3806 C   0  0  0  0  0  0  0  0  0  0  0  0
    8.3175   48.5705   52.5512 C   0  0  0  0  0  0  0  0  0  0  0  0
    9.2926   49.1024   53.5985 C   0  0  0  0  0  0  0  0  0  0  0  0
   10.5230   48.1974   53.5314 C   0  0  0  0  0  0  0  0  0  0  0  0
   10.2248   47.1662   52.4459 C   0  0  0  0  0  0  0  0  0  0  0  0
    6.0634   45.4530   53.0834 C   0  0  0  0  0  0  0  0  0  0  0  0
    6.2550   44.4124   52.2232 N   0  0  0  0  0  0  0  0  0  0  0  0
    3.5277   42.1805   50.8982 C   0  0  0  0  0  0  0  0  0  0  0  0
    3.2828   41.0900   50.0594 C   0  0  0  0  0  0  0  0  0  0  0  0
    4.1422   39.6463   48.6946 H   0  0  0  0  0  0  0  0  0  0  0  0
    6.4538   40.5425   48.9451 H   0  0  0  0  0  0  0  0  0  0  0  0
    6.8931   42.4858   50.4410 H   0  0  0  0  0  0  0  0  0  0  0  0
    4.5519   47.9973   55.3314 H   0  0  0  0  0  0  0  0  0  0  0  0
    8.2751   46.6543   51.4696 H   0  0  0  0  0  0  0  0  0  0  0  0
    8.4323   49.1145   51.6020 H   0  0  0  0  0  0  0  0  0  0  0  0
    7.2681   48.6962   52.8561 H   0  0  0  0  0  0  0  0  0  0  0  0
    9.5703   50.1416   53.3687 H   0  0  0  0  0  0  0  0  0  0  0  0
    8.8449   49.0976   54.6033 H   0  0  0  0  0  0  0  0  0  0  0  0
   11.4154   48.7838   53.2674 H   0  0  0  0  0  0  0  0  0  0  0  0
   10.7246   47.7173   54.5003 H   0  0  0  0  0  0  0  0  0  0  0  0
   10.6411   47.4883   51.4800 H   0  0  0  0  0  0  0  0  0  0  0  0
   10.6736   46.1868   52.6678 H   0  0  0  0  0  0  0  0  0  0  0  0
    7.1470   44.1168   51.8560 H   0  0  0  0  0  0  0  0  0  0  0  0
    2.6924   42.6377   51.4488 H   0  0  0  0  0  0  0  0  0  0  0  0
    2.2615   40.6952   49.9539 H   0  0  0  0  0  0  0  0  0  0  0  0
  1  2  2  0
  2  3  1  0
  3  4  2  0
  4  5  1  0
  5  6  2  0
  6  7  1  0
  7  8  2  0
  8  9  1  0
  9 10  2  0
 10 11  1  0
 11 12  1  0
 12 13  1  0
 13 14  1  0
 14 15  1  0
 15 16  1  0
 16 17  1  0
 11 18  2  0
 18 19  1  0
  4 20  1  0
 20 21  2  0
 21  1  1  0
 19  5  1  0
 18  7  1  0
 17 13  1  0
  1 22  1  0
  2 23  1  0
  3 24  1  0
  9 25  1  0
 13 26  1  0
 14 27  1  0
 14 28  1  0
 15 29  1  0
 15 30  1  0
 16 31  1  0
 16 32  1  0
 17 33  1  0
 17 34  1  0
 19 35  1  0
 20 36  1  0
 21 37  1  0
M  END
>  <meeko>  (25) 
{"is_sidechain": false}

>  <CID>  (25) 
49863194

>  <pose_index>  (25) 
10

>  <docking_score>  (25) 
-7.415

>  <rmsd_to_best_selected>  (25) 
1.7001005943477414

>  <MWT>  (25) 
280.3309999999997

>  <TPSA>  (25) 
63.690000000000005

>  <logP>  (25) 
3.3413000000000013

>  <HBD>  (25) 
1

>  <HBA>  (25) 
4

>  <SMILES>  (25) 
[H]c1nc(OC2([H])C([H])([H])C([H])([H])C([H])([H])C2([H])[H])c2c(n1)nc(-c1c([H])c([H])c([H])c([H])c1[H])n2[H]

$$$$
49863196_pose1
     RDKit          3D

 42 45  0  0  0  0  0  0  0  0999 V2000
    6.5100   42.6120   48.8670 C   0  0  0  0  0  0  0  0  0  0  0  0
    5.7810   41.4560   48.6510 C   0  0  0  0  0  0  0  0  0  0  0  0
    4.7540   41.0640   49.4330 N   0  0  0  0  0  0  0  0  0  0  0  0
    4.4450   41.8690   50.4800 C   0  0  0  0  0  0  0  0  0  0  0  0
    5.1090   43.0530   50.7940 C   0  0  0  0  0  0  0  0  0  0  0  0
    4.7530   43.9040   51.9310 C   0  0  0  0  0  0  0  0  0  0  0  0
    3.7400   43.6940   52.7610 N   0  0  0  0  0  0  0  0  0  0  0  0
    3.7700   44.7180   53.6660 C   0  0  0  0  0  0  0  0  0  0  0  0
    2.9140   44.8920   54.6890 N   0  0  0  0  0  0  0  0  0  0  0  0
    3.1900   45.9880   55.4110 C   0  0  0  0  0  0  0  0  0  0  0  0
    4.1840   46.8820   55.2250 N   0  0  0  0  0  0  0  0  0  0  0  0
    5.0220   46.6770   54.1910 C   0  0  0  0  0  0  0  0  0  0  0  0
    6.0650   47.5340   53.9220 O   0  0  0  0  0  0  0  0  0  0  0  0
    7.2810   47.1630   54.5740 C   0  0  0  0  0  0  0  0  0  0  0  0
    8.4780   47.4880   53.6620 C   0  0  0  0  0  0  0  0  0  0  0  0
    9.5360   46.3690   53.7220 C   0  0  0  0  0  0  0  0  0  0  0  0
   10.4870   46.4420   52.5340 C   0  0  0  0  0  0  0  0  0  0  0  0
    9.7550   46.2390   51.2070 C   0  0  0  0  0  0  0  0  0  0  0  0
    8.2810   46.6420   51.2560 C   0  0  0  0  0  0  0  0  0  0  0  0
    8.0370   47.8010   52.2160 C   0  0  0  0  0  0  0  0  0  0  0  0
    4.8120   45.5760   53.3980 C   0  0  0  0  0  0  0  0  0  0  0  0
    5.4270   45.0520   52.2990 N   0  0  0  0  0  0  0  0  0  0  0  0
    6.1660   43.4160   49.9520 C   0  0  0  0  0  0  0  0  0  0  0  0
    7.3394   42.8891   48.1997 H   0  0  0  0  0  0  0  0  0  0  0  0
    6.0538   40.8218   47.7946 H   0  0  0  0  0  0  0  0  0  0  0  0
    3.6098   41.5651   51.1281 H   0  0  0  0  0  0  0  0  0  0  0  0
    2.5217   46.1831   56.2626 H   0  0  0  0  0  0  0  0  0  0  0  0
    7.3764   47.7227   55.5161 H   0  0  0  0  0  0  0  0  0  0  0  0
    7.2665   46.0837   54.7858 H   0  0  0  0  0  0  0  0  0  0  0  0
    8.9488   48.4060   54.0436 H   0  0  0  0  0  0  0  0  0  0  0  0
   10.1151   46.4729   54.6514 H   0  0  0  0  0  0  0  0  0  0  0  0
    9.0177   45.3992   53.6927 H   0  0  0  0  0  0  0  0  0  0  0  0
   10.9714   47.4296   52.5259 H   0  0  0  0  0  0  0  0  0  0  0  0
   11.2300   45.6379   52.6410 H   0  0  0  0  0  0  0  0  0  0  0  0
   10.2560   46.8439   50.4369 H   0  0  0  0  0  0  0  0  0  0  0  0
    9.7890   45.1632   50.9799 H   0  0  0  0  0  0  0  0  0  0  0  0
    7.9615   46.9431   50.2474 H   0  0  0  0  0  0  0  0  0  0  0  0
    7.7041   45.7768   51.6146 H   0  0  0  0  0  0  0  0  0  0  0  0
    8.5997   48.6763   51.8594 H   0  0  0  0  0  0  0  0  0  0  0  0
    6.9536   47.9903   52.2355 H   0  0  0  0  0  0  0  0  0  0  0  0
    6.2370   45.4500   51.8450 H   0  0  0  0  0  0  0  0  0  0  0  0
    6.7284   44.3409   50.1476 H   0  0  0  0  0  0  0  0  0  0  0  0
  1  2  2  0
  2  3  1  0
  3  4  2  0
  4  5  1  0
  5  6  1  0
  6  7  2  0
  7  8  1  0
  8  9  2  0
  9 10  1  0
 10 11  2  0
 11 12  1  0
 12 13  1  0
 13 14  1  0
 14 15  1  0
 15 16  1  0
 16 17  1  0
 17 18  1  0
 18 19  1  0
 19 20  1  0
 12 21  2  0
 21 22  1  0
  5 23  2  0
 23  1  1  0
 22  6  1  0
 21  8  1  0
 20 15  1  0
  1 24  1  0
  2 25  1  0
  4 26  1  0
 10 27  1  0
 14 28  1  0
 14 29  1  0
 15 30  1  0
 16 31  1  0
 16 32  1  0
 17 33  1  0
 17 34  1  0
 18 35  1  0
 18 36  1  0
 19 37  1  0
 19 38  1  0
 20 39  1  0
 20 40  1  0
 22 41  1  0
 23 42  1  0
M  END
>  <meeko>  (26) 
{"is_sidechain": false}

>  <CID>  (26) 
49863196

>  <pose_index>  (26) 
1

>  <docking_score>  (26) 
-9.156

>  <rmsd_to_best_selected>  (26) 
0.0

>  <MWT>  (26) 
309.37299999999965

>  <TPSA>  (26) 
76.58000000000001

>  <logP>  (26) 
3.3740000000000014

>  <HBD>  (26) 
1

>  <HBA>  (26) 
5

>  <SMILES>  (26) 
[H]c1nc(OC([H])([H])C2([H])C([H])([H])C([H])([H])C([H])([H])C([H])([H])C2([H])[H])c2c(n1)nc(-c1c([H])nc([H])c([H])c1[H])n2[H]

$$$$
49863196_pose4
     RDKit          3D

 42 45  0  0  0  0  0  0  0  0999 V2000
    6.4908   42.1132   49.2685 C   0  0  0  0  0  0  0  0  0  0  0  0
    5.4790   41.3912   48.6616 C   0  0  0  0  0  0  0  0  0  0  0  0
    4.1808   41.4729   49.0254 N   0  0  0  0  0  0  0  0  0  0  0  0
    3.8878   42.3179   50.0450 C   0  0  0  0  0  0  0  0  0  0  0  0
    4.8236   43.0925   50.7281 C   0  0  0  0  0  0  0  0  0  0  0  0
    4.4784   43.9975   51.8263 C   0  0  0  0  0  0  0  0  0  0  0  0
    3.2525   44.3972   52.1366 N   0  0  0  0  0  0  0  0  0  0  0  0
    3.3830   45.2269   53.2147 C   0  0  0  0  0  0  0  0  0  0  0  0
    2.3797   45.8554   53.8530 N   0  0  0  0  0  0  0  0  0  0  0  0
    2.8109   46.6065   54.8768 C   0  0  0  0  0  0  0  0  0  0  0  0
    4.0784   46.7849   55.3067 N   0  0  0  0  0  0  0  0  0  0  0  0
    5.0570   46.1410   54.6443 C   0  0  0  0  0  0  0  0  0  0  0  0
    6.3794   46.2603   55.0086 O   0  0  0  0  0  0  0  0  0  0  0  0
    7.1160   47.1517   54.1676 C   0  0  0  0  0  0  0  0  0  0  0  0
    8.2171   46.3719   53.4264 C   0  0  0  0  0  0  0  0  0  0  0  0
    8.1179   46.5938   51.9041 C   0  0  0  0  0  0  0  0  0  0  0  0
    9.4156   46.2137   51.2033 C   0  0  0  0  0  0  0  0  0  0  0  0
   10.5860   47.0839   51.6665 C   0  0  0  0  0  0  0  0  0  0  0  0
   10.4099   47.6426   53.0782 C   0  0  0  0  0  0  0  0  0  0  0  0
    9.6242   46.6922   53.9747 C   0  0  0  0  0  0  0  0  0  0  0  0
    4.7045   45.3474   53.5799 C   0  0  0  0  0  0  0  0  0  0  0  0
    5.3883   44.5668   52.6961 N   0  0  0  0  0  0  0  0  0  0  0  0
    6.1537   42.9724   50.3131 C   0  0  0  0  0  0  0  0  0  0  0  0
    7.5343   42.0120   48.9354 H   0  0  0  0  0  0  0  0  0  0  0  0
    5.7462   40.7134   47.8375 H   0  0  0  0  0  0  0  0  0  0  0  0
    2.8354   42.3976   50.3552 H   0  0  0  0  0  0  0  0  0  0  0  0
    2.0333   47.1458   55.4376 H   0  0  0  0  0  0  0  0  0  0  0  0
    6.4354   47.6096   53.4347 H   0  0  0  0  0  0  0  0  0  0  0  0
    7.5770   47.9376   54.7838 H   0  0  0  0  0  0  0  0  0  0  0  0
    8.0525   45.3008   53.6148 H   0  0  0  0  0  0  0  0  0  0  0  0
    7.3006   45.9756   51.5045 H   0  0  0  0  0  0  0  0  0  0  0  0
    7.9244   47.6610   51.7209 H   0  0  0  0  0  0  0  0  0  0  0  0
    9.6449   45.1609   51.4246 H   0  0  0  0  0  0  0  0  0  0  0  0
    9.2796   46.3694   50.1229 H   0  0  0  0  0  0  0  0  0  0  0  0
   11.5021   46.4753   51.6448 H   0  0  0  0  0  0  0  0  0  0  0  0
   10.6399   47.9439   50.9828 H   0  0  0  0  0  0  0  0  0  0  0  0
   11.4030   47.8088   53.5208 H   0  0  0  0  0  0  0  0  0  0  0  0
    9.8451   48.5835   53.0031 H   0  0  0  0  0  0  0  0  0  0  0  0
   10.1870   45.7516   54.0671 H   0  0  0  0  0  0  0  0  0  0  0  0
    9.4936   47.1892   54.9473 H   0  0  0  0  0  0  0  0  0  0  0  0
    6.3898   44.4380   52.6923 H   0  0  0  0  0  0  0  0  0  0  0  0
    6.9381   43.5591   50.8136 H   0  0  0  0  0  0  0  0  0  0  0  0
  1  2  2  0
  2  3  1  0
  3  4  2  0
  4  5  1  0
  5  6  1  0
  6  7  2  0
  7  8  1  0
  8  9  2  0
  9 10  1  0
 10 11  2  0
 11 12  1  0
 12 13  1  0
 13 14  1  0
 14 15  1  0
 15 16  1  0
 16 17  1  0
 17 18  1  0
 18 19  1  0
 19 20  1  0
 12 21  2  0
 21 22  1  0
  5 23  2  0
 23  1  1  0
 22  6  1  0
 21  8  1  0
 20 15  1  0
  1 24  1  0
  2 25  1  0
  4 26  1  0
 10 27  1  0
 14 28  1  0
 14 29  1  0
 15 30  1  0
 16 31  1  0
 16 32  1  0
 17 33  1  0
 17 34  1  0
 18 35  1  0
 18 36  1  0
 19 37  1  0
 19 38  1  0
 20 39  1  0
 20 40  1  0
 22 41  1  0
 23 42  1  0
M  END
>  <meeko>  (27) 
{"is_sidechain": false}

>  <CID>  (27) 
49863196

>  <pose_index>  (27) 
4

>  <docking_score>  (27) 
-8.404

>  <rmsd_to_best_selected>  (27) 
1.2731589491776922

>  <MWT>  (27) 
309.37299999999965

>  <TPSA>  (27) 
76.58000000000001

>  <logP>  (27) 
3.3740000000000014

>  <HBD>  (27) 
1

>  <HBA>  (27) 
5

>  <SMILES>  (27) 
[H]c1nc(OC([H])([H])C2([H])C([H])([H])C([H])([H])C([H])([H])C([H])([H])C2([H])[H])c2c(n1)nc(-c1c([H])nc([H])c([H])c1[H])n2[H]

$$$$
49863196_pose5
     RDKit          3D

 42 45  0  0  0  0  0  0  0  0999 V2000
    5.2828   41.4057   49.0613 C   0  0  0  0  0  0  0  0  0  0  0  0
    6.6269   41.4584   48.7391 C   0  0  0  0  0  0  0  0  0  0  0  0
    7.5100   42.2758   49.3504 N   0  0  0  0  0  0  0  0  0  0  0  0
    7.0205   43.0752   50.3308 C   0  0  0  0  0  0  0  0  0  0  0  0
    5.6885   43.1065   50.7387 C   0  0  0  0  0  0  0  0  0  0  0  0
    5.1869   43.9807   51.8010 C   0  0  0  0  0  0  0  0  0  0  0  0
    3.9084   44.2176   52.0613 N   0  0  0  0  0  0  0  0  0  0  0  0
    3.8886   45.0814   53.1209 C   0  0  0  0  0  0  0  0  0  0  0  0
    2.7888   45.5819   53.7100 N   0  0  0  0  0  0  0  0  0  0  0  0
    3.0779   46.4067   54.7281 C   0  0  0  0  0  0  0  0  0  0  0  0
    4.2944   46.7630   55.1927 N   0  0  0  0  0  0  0  0  0  0  0  0
    5.3737   46.2423   54.5784 C   0  0  0  0  0  0  0  0  0  0  0  0
    6.6542   46.5474   54.9812 O   0  0  0  0  0  0  0  0  0  0  0  0
    7.0959   47.8297   54.5284 C   0  0  0  0  0  0  0  0  0  0  0  0
    8.3821   47.6695   53.6978 C   0  0  0  0  0  0  0  0  0  0  0  0
    8.9686   46.2522   53.8580 C   0  0  0  0  0  0  0  0  0  0  0  0
    9.9524   45.9287   52.7416 C   0  0  0  0  0  0  0  0  0  0  0  0
    9.2754   45.9357   51.3696 C   0  0  0  0  0  0  0  0  0  0  0  0
    8.0407   46.8346   51.3026 C   0  0  0  0  0  0  0  0  0  0  0  0
    8.1675   48.0489   52.2165 C   0  0  0  0  0  0  0  0  0  0  0  0
    5.1680   45.3870   53.5244 C   0  0  0  0  0  0  0  0  0  0  0  0
    5.9812   44.6864   52.6833 N   0  0  0  0  0  0  0  0  0  0  0  0
    4.8134   42.2411   50.0730 C   0  0  0  0  0  0  0  0  0  0  0  0
    4.6021   40.7221   48.5326 H   0  0  0  0  0  0  0  0  0  0  0  0
    6.9964   40.7978   47.9409 H   0  0  0  0  0  0  0  0  0  0  0  0
    7.7262   43.7475   50.8408 H   0  0  0  0  0  0  0  0  0  0  0  0
    2.2157   46.8478   55.2495 H   0  0  0  0  0  0  0  0  0  0  0  0
    6.3130   48.2878   53.9062 H   0  0  0  0  0  0  0  0  0  0  0  0
    7.2998   48.4734   55.3968 H   0  0  0  0  0  0  0  0  0  0  0  0
    9.1236   48.3799   54.0920 H   0  0  0  0  0  0  0  0  0  0  0  0
    9.4900   46.1878   54.8244 H   0  0  0  0  0  0  0  0  0  0  0  0
    8.1419   45.5280   53.8116 H   0  0  0  0  0  0  0  0  0  0  0  0
   10.7560   46.6799   52.7462 H   0  0  0  0  0  0  0  0  0  0  0  0
   10.3537   44.9202   52.9204 H   0  0  0  0  0  0  0  0  0  0  0  0
   10.0034   46.2882   50.6241 H   0  0  0  0  0  0  0  0  0  0  0  0
    8.9381   44.9078   51.1704 H   0  0  0  0  0  0  0  0  0  0  0  0
    7.9100   47.1816   50.2670 H   0  0  0  0  0  0  0  0  0  0  0  0
    7.1738   46.2463   51.6377 H   0  0  0  0  0  0  0  0  0  0  0  0
    9.0244   48.6519   51.8814 H   0  0  0  0  0  0  0  0  0  0  0  0
    7.2223   48.6081   52.1536 H   0  0  0  0  0  0  0  0  0  0  0  0
    6.9906   44.6939   52.7147 H   0  0  0  0  0  0  0  0  0  0  0  0
    3.7490   42.2202   50.3498 H   0  0  0  0  0  0  0  0  0  0  0  0
  1  2  2  0
  2  3  1  0
  3  4  2  0
  4  5  1  0
  5  6  1  0
  6  7  2  0
  7  8  1  0
  8  9  2  0
  9 10  1  0
 10 11  2  0
 11 12  1  0
 12 13  1  0
 13 14  1  0
 14 15  1  0
 15 16  1  0
 16 17  1  0
 17 18  1  0
 18 19  1  0
 19 20  1  0
 12 21  2  0
 21 22  1  0
  5 23  2  0
 23  1  1  0
 22  6  1  0
 21  8  1  0
 20 15  1  0
  1 24  1  0
  2 25  1  0
  4 26  1  0
 10 27  1  0
 14 28  1  0
 14 29  1  0
 15 30  1  0
 16 31  1  0
 16 32  1  0
 17 33  1  0
 17 34  1  0
 18 35  1  0
 18 36  1  0
 19 37  1  0
 19 38  1  0
 20 39  1  0
 20 40  1  0
 22 41  1  0
 23 42  1  0
M  END
>  <meeko>  (28) 
{"is_sidechain": false}

>  <CID>  (28) 
49863196

>  <pose_index>  (28) 
5

>  <docking_score>  (28) 
-8.208

>  <rmsd_to_best_selected>  (28) 
1.5032989011149074

>  <MWT>  (28) 
309.37299999999965

>  <TPSA>  (28) 
76.58000000000001

>  <logP>  (28) 
3.3740000000000014

>  <HBD>  (28) 
1

>  <HBA>  (28) 
5

>  <SMILES>  (28) 
[H]c1nc(OC([H])([H])C2([H])C([H])([H])C([H])([H])C([H])([H])C([H])([H])C2([H])[H])c2c(n1)nc(-c1c([H])nc([H])c([H])c1[H])n2[H]

$$$$
49863196_pose7
     RDKit          3D

 42 45  0  0  0  0  0  0  0  0999 V2000
    6.7451   42.7204   48.7518 C   0  0  0  0  0  0  0  0  0  0  0  0
    5.7010   42.0239   48.1714 C   0  0  0  0  0  0  0  0  0  0  0  0
    4.4364   42.0439   48.6448 N   0  0  0  0  0  0  0  0  0  0  0  0
    4.2123   42.7966   49.7505 C   0  0  0  0  0  0  0  0  0  0  0  0
    5.1859   43.5377   50.4164 C   0  0  0  0  0  0  0  0  0  0  0  0
    4.9161   44.3435   51.6090 C   0  0  0  0  0  0  0  0  0  0  0  0
    3.7593   44.9248   51.8972 N   0  0  0  0  0  0  0  0  0  0  0  0
    3.9435   45.5705   53.0890 C   0  0  0  0  0  0  0  0  0  0  0  0
    3.0182   46.2906   53.7474 N   0  0  0  0  0  0  0  0  0  0  0  0
    3.4873   46.8084   54.8920 C   0  0  0  0  0  0  0  0  0  0  0  0
    4.7240   46.6854   55.4190 N   0  0  0  0  0  0  0  0  0  0  0  0
    5.6247   45.9586   54.7332 C   0  0  0  0  0  0  0  0  0  0  0  0
    6.9105   45.7776   55.1903 O   0  0  0  0  0  0  0  0  0  0  0  0
    7.6869   46.9769   55.1739 C   0  0  0  0  0  0  0  0  0  0  0  0
    8.7765   46.8744   54.0914 C   0  0  0  0  0  0  0  0  0  0  0  0
    8.9643   45.4130   53.6370 C   0  0  0  0  0  0  0  0  0  0  0  0
    9.6877   45.3371   52.2997 C   0  0  0  0  0  0  0  0  0  0  0  0
    8.8888   46.0098   51.1822 C   0  0  0  0  0  0  0  0  0  0  0  0
    7.9498   47.1086   51.6813 C   0  0  0  0  0  0  0  0  0  0  0  0
    8.5087   47.8252   52.9059 C   0  0  0  0  0  0  0  0  0  0  0  0
    5.2295   45.3904   53.5465 C   0  0  0  0  0  0  0  0  0  0  0  0
    5.8343   44.6134   52.6039 N   0  0  0  0  0  0  0  0  0  0  0  0
    6.4807   43.4846   49.8866 C   0  0  0  0  0  0  0  0  0  0  0  0
    7.7591   42.6724   48.3283 H   0  0  0  0  0  0  0  0  0  0  0  0
    5.9119   41.4210   47.2758 H   0  0  0  0  0  0  0  0  0  0  0  0
    3.1879   42.8239   50.1503 H   0  0  0  0  0  0  0  0  0  0  0  0
    2.7741   47.4095   55.4752 H   0  0  0  0  0  0  0  0  0  0  0  0
    7.0324   47.8333   54.9541 H   0  0  0  0  0  0  0  0  0  0  0  0
    8.1613   47.1174   56.1564 H   0  0  0  0  0  0  0  0  0  0  0  0
    9.7246   47.2053   54.5405 H   0  0  0  0  0  0  0  0  0  0  0  0
    9.5539   44.8754   54.3942 H   0  0  0  0  0  0  0  0  0  0  0  0
    7.9706   44.9558   53.5201 H   0  0  0  0  0  0  0  0  0  0  0  0
   10.6619   45.8394   52.3930 H   0  0  0  0  0  0  0  0  0  0  0  0
    9.8133   44.2758   52.0389 H   0  0  0  0  0  0  0  0  0  0  0  0
    9.5966   46.4546   50.4673 H   0  0  0  0  0  0  0  0  0  0  0  0
    8.2619   45.2333   50.7197 H   0  0  0  0  0  0  0  0  0  0  0  0
    7.8033   47.8434   50.8759 H   0  0  0  0  0  0  0  0  0  0  0  0
    6.9980   46.6377   51.9681 H   0  0  0  0  0  0  0  0  0  0  0  0
    9.4549   48.3114   52.6260 H   0  0  0  0  0  0  0  0  0  0  0  0
    7.7532   48.5546   53.2334 H   0  0  0  0  0  0  0  0  0  0  0  0
    6.7933   44.2984   52.6431 H   0  0  0  0  0  0  0  0  0  0  0  0
    7.2930   44.0488   50.3683 H   0  0  0  0  0  0  0  0  0  0  0  0
  1  2  2  0
  2  3  1  0
  3  4  2  0
  4  5  1  0
  5  6  1  0
  6  7  2  0
  7  8  1  0
  8  9  2  0
  9 10  1  0
 10 11  2  0
 11 12  1  0
 12 13  1  0
 13 14  1  0
 14 15  1  0
 15 16  1  0
 16 17  1  0
 17 18  1  0
 18 19  1  0
 19 20  1  0
 12 21  2  0
 21 22  1  0
  5 23  2  0
 23  1  1  0
 22  6  1  0
 21  8  1  0
 20 15  1  0
  1 24  1  0
  2 25  1  0
  4 26  1  0
 10 27  1  0
 14 28  1  0
 14 29  1  0
 15 30  1  0
 16 31  1  0
 16 32  1  0
 17 33  1  0
 17 34  1  0
 18 35  1  0
 18 36  1  0
 19 37  1  0
 19 38  1  0
 20 39  1  0
 20 40  1  0
 22 41  1  0
 23 42  1  0
M  END
>  <meeko>  (29) 
{"is_sidechain": false}

>  <CID>  (29) 
49863196

>  <pose_index>  (29) 
7

>  <docking_score>  (29) 
-7.977

>  <rmsd_to_best_selected>  (29) 
0.9875211570281105

>  <MWT>  (29) 
309.37299999999965

>  <TPSA>  (29) 
76.58000000000001

>  <logP>  (29) 
3.3740000000000014

>  <HBD>  (29) 
1

>  <HBA>  (29) 
5

>  <SMILES>  (29) 
[H]c1nc(OC([H])([H])C2([H])C([H])([H])C([H])([H])C([H])([H])C([H])([H])C2([H])[H])c2c(n1)nc(-c1c([H])nc([H])c([H])c1[H])n2[H]

$$$$
49863196_pose8
     RDKit          3D

 42 45  0  0  0  0  0  0  0  0999 V2000
    6.4262   43.6742   48.4539 C   0  0  0  0  0  0  0  0  0  0  0  0
    5.8149   42.4656   48.1733 C   0  0  0  0  0  0  0  0  0  0  0  0
    4.9229   41.8704   48.9929 N   0  0  0  0  0  0  0  0  0  0  0  0
    4.6322   42.5205   50.1477 C   0  0  0  0  0  0  0  0  0  0  0  0
    5.1861   43.7383   50.5350 C   0  0  0  0  0  0  0  0  0  0  0  0
    4.8529   44.4182   51.7891 C   0  0  0  0  0  0  0  0  0  0  0  0
    3.6258   44.6852   52.2155 N   0  0  0  0  0  0  0  0  0  0  0  0
    3.7704   45.3212   53.4165 C   0  0  0  0  0  0  0  0  0  0  0  0
    2.7704   45.7709   54.1966 N   0  0  0  0  0  0  0  0  0  0  0  0
    3.2158   46.3563   55.3191 C   0  0  0  0  0  0  0  0  0  0  0  0
    4.4932   46.5289   55.7196 N   0  0  0  0  0  0  0  0  0  0  0  0
    5.4673   46.0686   54.9138 C   0  0  0  0  0  0  0  0  0  0  0  0
    6.7983   46.1990   55.2377 O   0  0  0  0  0  0  0  0  0  0  0  0
    7.4157   47.3384   54.6331 C   0  0  0  0  0  0  0  0  0  0  0  0
    8.6872   46.9014   53.8841 C   0  0  0  0  0  0  0  0  0  0  0  0
    8.7426   45.3664   53.7435 C   0  0  0  0  0  0  0  0  0  0  0  0
    9.7231   44.9457   52.6553 C   0  0  0  0  0  0  0  0  0  0  0  0
    9.3015   45.4647   51.2800 C   0  0  0  0  0  0  0  0  0  0  0  0
    8.4555   46.7372   51.3413 C   0  0  0  0  0  0  0  0  0  0  0  0
    8.8357   47.6194   52.5257 C   0  0  0  0  0  0  0  0  0  0  0  0
    5.1005   45.4533   53.7413 C   0  0  0  0  0  0  0  0  0  0  0  0
    5.7760   44.8790   52.7063 N   0  0  0  0  0  0  0  0  0  0  0  0
    6.1039   44.3139   49.6501 C   0  0  0  0  0  0  0  0  0  0  0  0
    7.1473   44.1187   47.7522 H   0  0  0  0  0  0  0  0  0  0  0  0
    6.0699   41.9614   47.2295 H   0  0  0  0  0  0  0  0  0  0  0  0
    3.9059   42.0516   50.8278 H   0  0  0  0  0  0  0  0  0  0  0  0
    2.4424   46.7444   55.9983 H   0  0  0  0  0  0  0  0  0  0  0  0
    6.7140   47.8013   53.9237 H   0  0  0  0  0  0  0  0  0  0  0  0
    7.6839   48.0653   55.4139 H   0  0  0  0  0  0  0  0  0  0  0  0
    9.5533   47.2086   54.4886 H   0  0  0  0  0  0  0  0  0  0  0  0
    9.0615   44.9300   54.7016 H   0  0  0  0  0  0  0  0  0  0  0  0
    7.7407   45.0064   53.4666 H   0  0  0  0  0  0  0  0  0  0  0  0
   10.7181   45.3472   52.8978 H   0  0  0  0  0  0  0  0  0  0  0  0
    9.7395   43.8465   52.6159 H   0  0  0  0  0  0  0  0  0  0  0  0
   10.2085   45.6775   50.6950 H   0  0  0  0  0  0  0  0  0  0  0  0
    8.6796   44.6847   50.8164 H   0  0  0  0  0  0  0  0  0  0  0  0
    8.6033   47.3071   50.4121 H   0  0  0  0  0  0  0  0  0  0  0  0
    7.4033   46.4403   51.4628 H   0  0  0  0  0  0  0  0  0  0  0  0
    9.8835   47.9327   52.4075 H   0  0  0  0  0  0  0  0  0  0  0  0
    8.1486   48.4784   52.5305 H   0  0  0  0  0  0  0  0  0  0  0  0
    6.7817   44.8111   52.6379 H   0  0  0  0  0  0  0  0  0  0  0  0
    6.5740   45.2767   49.8993 H   0  0  0  0  0  0  0  0  0  0  0  0
  1  2  2  0
  2  3  1  0
  3  4  2  0
  4  5  1  0
  5  6  1  0
  6  7  2  0
  7  8  1  0
  8  9  2  0
  9 10  1  0
 10 11  2  0
 11 12  1  0
 12 13  1  0
 13 14  1  0
 14 15  1  0
 15 16  1  0
 16 17  1  0
 17 18  1  0
 18 19  1  0
 19 20  1  0
 12 21  2  0
 21 22  1  0
  5 23  2  0
 23  1  1  0
 22  6  1  0
 21  8  1  0
 20 15  1  0
  1 24  1  0
  2 25  1  0
  4 26  1  0
 10 27  1  0
 14 28  1  0
 14 29  1  0
 15 30  1  0
 16 31  1  0
 16 32  1  0
 17 33  1  0
 17 34  1  0
 18 35  1  0
 18 36  1  0
 19 37  1  0
 19 38  1  0
 20 39  1  0
 20 40  1  0
 22 41  1  0
 23 42  1  0
M  END
>  <meeko>  (30) 
{"is_sidechain": false}

>  <CID>  (30) 
49863196

>  <pose_index>  (30) 
8

>  <docking_score>  (30) 
-7.735

>  <rmsd_to_best_selected>  (30) 
0.8953014487200316

>  <MWT>  (30) 
309.37299999999965

>  <TPSA>  (30) 
76.58000000000001

>  <logP>  (30) 
3.3740000000000014

>  <HBD>  (30) 
1

>  <HBA>  (30) 
5

>  <SMILES>  (30) 
[H]c1nc(OC([H])([H])C2([H])C([H])([H])C([H])([H])C([H])([H])C([H])([H])C2([H])[H])c2c(n1)nc(-c1c([H])nc([H])c([H])c1[H])n2[H]

$$$$
49863196_pose10
     RDKit          3D

 42 45  0  0  0  0  0  0  0  0999 V2000
    6.5908   43.4933   48.5875 C   0  0  0  0  0  0  0  0  0  0  0  0
    5.6072   43.5341   47.6151 C   0  0  0  0  0  0  0  0  0  0  0  0
    4.3245   43.8725   47.8645 N   0  0  0  0  0  0  0  0  0  0  0  0
    4.0163   44.1851   49.1482 C   0  0  0  0  0  0  0  0  0  0  0  0
    4.9224   44.1776   50.2065 C   0  0  0  0  0  0  0  0  0  0  0  0
    4.5618   44.5207   51.5839 C   0  0  0  0  0  0  0  0  0  0  0  0
    3.3271   44.5767   52.0633 N   0  0  0  0  0  0  0  0  0  0  0  0
    3.4445   44.9310   53.3790 C   0  0  0  0  0  0  0  0  0  0  0  0
    2.4291   45.1018   54.2437 N   0  0  0  0  0  0  0  0  0  0  0  0
    2.8481   45.4500   55.4687 C   0  0  0  0  0  0  0  0  0  0  0  0
    4.1149   45.6346   55.8961 N   0  0  0  0  0  0  0  0  0  0  0  0
    5.1064   45.4555   55.0036 C   0  0  0  0  0  0  0  0  0  0  0  0
    6.4291   45.6209   55.3468 O   0  0  0  0  0  0  0  0  0  0  0  0
    7.1074   46.5759   54.5272 C   0  0  0  0  0  0  0  0  0  0  0  0
    8.4116   45.9619   53.9884 C   0  0  0  0  0  0  0  0  0  0  0  0
    8.1963   45.3521   52.5890 C   0  0  0  0  0  0  0  0  0  0  0  0
    9.5196   45.1441   51.8645 C   0  0  0  0  0  0  0  0  0  0  0  0
   10.2480   46.4670   51.6236 C   0  0  0  0  0  0  0  0  0  0  0  0
    9.8940   47.5535   52.6392 C   0  0  0  0  0  0  0  0  0  0  0  0
    9.5813   46.9695   54.0136 C   0  0  0  0  0  0  0  0  0  0  0  0
    4.7663   45.0968   53.7221 C   0  0  0  0  0  0  0  0  0  0  0  0
    5.4643   44.8355   52.5807 N   0  0  0  0  0  0  0  0  0  0  0  0
    6.2395   43.8200   49.8965 C   0  0  0  0  0  0  0  0  0  0  0  0
    7.6232   43.2104   48.3343 H   0  0  0  0  0  0  0  0  0  0  0  0
    5.8858   43.2767   46.5826 H   0  0  0  0  0  0  0  0  0  0  0  0
    2.9757   44.4645   49.3695 H   0  0  0  0  0  0  0  0  0  0  0  0
    2.0599   45.6047   56.2202 H   0  0  0  0  0  0  0  0  0  0  0  0
    6.4605   46.8591   53.6837 H   0  0  0  0  0  0  0  0  0  0  0  0
    7.3442   47.4678   55.1259 H   0  0  0  0  0  0  0  0  0  0  0  0
    8.6983   45.1427   54.6643 H   0  0  0  0  0  0  0  0  0  0  0  0
    7.6900   44.3814   52.6956 H   0  0  0  0  0  0  0  0  0  0  0  0
    7.5836   46.0488   51.9981 H   0  0  0  0  0  0  0  0  0  0  0  0
   10.1607   44.4903   52.4741 H   0  0  0  0  0  0  0  0  0  0  0  0
    9.3065   44.6875   50.8866 H   0  0  0  0  0  0  0  0  0  0  0  0
   11.3311   46.2822   51.6752 H   0  0  0  0  0  0  0  0  0  0  0  0
    9.9330   46.8336   50.6355 H   0  0  0  0  0  0  0  0  0  0  0  0
   10.7450   48.2442   52.7317 H   0  0  0  0  0  0  0  0  0  0  0  0
    8.9954   48.0760   52.2791 H   0  0  0  0  0  0  0  0  0  0  0  0
   10.4788   46.4558   54.3887 H   0  0  0  0  0  0  0  0  0  0  0  0
    9.2834   47.8037   54.6659 H   0  0  0  0  0  0  0  0  0  0  0  0
    6.4699   44.8709   52.4967 H   0  0  0  0  0  0  0  0  0  0  0  0
    7.0013   43.7965   50.6897 H   0  0  0  0  0  0  0  0  0  0  0  0
  1  2  2  0
  2  3  1  0
  3  4  2  0
  4  5  1  0
  5  6  1  0
  6  7  2  0
  7  8  1  0
  8  9  2  0
  9 10  1  0
 10 11  2  0
 11 12  1  0
 12 13  1  0
 13 14  1  0
 14 15  1  0
 15 16  1  0
 16 17  1  0
 17 18  1  0
 18 19  1  0
 19 20  1  0
 12 21  2  0
 21 22  1  0
  5 23  2  0
 23  1  1  0
 22  6  1  0
 21  8  1  0
 20 15  1  0
  1 24  1  0
  2 25  1  0
  4 26  1  0
 10 27  1  0
 14 28  1  0
 14 29  1  0
 15 30  1  0
 16 31  1  0
 16 32  1  0
 17 33  1  0
 17 34  1  0
 18 35  1  0
 18 36  1  0
 19 37  1  0
 19 38  1  0
 20 39  1  0
 20 40  1  0
 22 41  1  0
 23 42  1  0
M  END
>  <meeko>  (31) 
{"is_sidechain": false}

>  <CID>  (31) 
49863196

>  <pose_index>  (31) 
10

>  <docking_score>  (31) 
-7.5

>  <rmsd_to_best_selected>  (31) 
1.5397197809749146

>  <MWT>  (31) 
309.37299999999965

>  <TPSA>  (31) 
76.58000000000001

>  <logP>  (31) 
3.3740000000000014

>  <HBD>  (31) 
1

>  <HBA>  (31) 
5

>  <SMILES>  (31) 
[H]c1nc(OC([H])([H])C2([H])C([H])([H])C([H])([H])C([H])([H])C([H])([H])C2([H])[H])c2c(n1)nc(-c1c([H])nc([H])c([H])c1[H])n2[H]

$$$$
5329520_pose1
     RDKit          3D

 32 34  0  0  0  0  0  0  0  0999 V2000
    2.1660   42.3050   53.0740 N   0  0  0  0  0  0  0  0  0  0  0  0
    3.2240   42.8000   52.3320 C   0  0  0  0  0  0  0  0  0  0  0  0
    3.4710   44.1160   52.4490 N   0  0  0  0  0  0  0  0  0  0  0  0
    4.4850   44.6330   51.7360 C   0  0  0  0  0  0  0  0  0  0  0  0
    4.7640   45.9720   51.8420 O   0  0  0  0  0  0  0  0  0  0  0  0
    5.2720   46.2520   53.1530 C   0  0  0  0  0  0  0  0  0  0  0  0
    6.1600   47.4980   53.0710 C   0  0  0  0  0  0  0  0  0  0  0  0
    7.6250   47.1610   52.8930 C   0  0  0  0  0  0  0  0  0  0  0  0
    8.5340   47.3660   53.9430 C   0  0  0  0  0  0  0  0  0  0  0  0
    9.8810   47.0350   53.7900 C   0  0  0  0  0  0  0  0  0  0  0  0
   10.3350   46.4920   52.5890 C   0  0  0  0  0  0  0  0  0  0  0  0
    9.4420   46.2870   51.5370 C   0  0  0  0  0  0  0  0  0  0  0  0
    8.0970   46.6250   51.6860 C   0  0  0  0  0  0  0  0  0  0  0  0
    5.2270   43.8010   50.9430 C   0  0  0  0  0  0  0  0  0  0  0  0
    6.2720   43.9590   50.0820 N   0  0  0  0  0  0  0  0  0  0  0  0
    6.5610   42.7230   49.5690 C   0  0  0  0  0  0  0  0  0  0  0  0
    5.7600   41.7950   50.0490 N   0  0  0  0  0  0  0  0  0  0  0  0
    4.9140   42.4610   50.8960 C   0  0  0  0  0  0  0  0  0  0  0  0
    3.9050   41.9170   51.5970 N   0  0  0  0  0  0  0  0  0  0  0  0
    1.5910   41.7150   52.4880 H   0  0  0  0  0  0  0  0  0  0  0  0
    2.5110   41.9070   53.9360 H   0  0  0  0  0  0  0  0  0  0  0  0
    4.4361   46.4362   53.8439 H   0  0  0  0  0  0  0  0  0  0  0  0
    5.8549   45.3959   53.5235 H   0  0  0  0  0  0  0  0  0  0  0  0
    5.8328   48.1076   52.2158 H   0  0  0  0  0  0  0  0  0  0  0  0
    6.0575   48.0420   54.0215 H   0  0  0  0  0  0  0  0  0  0  0  0
    8.1815   47.7911   54.8943 H   0  0  0  0  0  0  0  0  0  0  0  0
   10.5854   47.2028   54.6181 H   0  0  0  0  0  0  0  0  0  0  0  0
   11.3957   46.2256   52.4710 H   0  0  0  0  0  0  0  0  0  0  0  0
    9.7990   45.8583   50.5889 H   0  0  0  0  0  0  0  0  0  0  0  0
    7.4001   46.4697   50.8492 H   0  0  0  0  0  0  0  0  0  0  0  0
    6.7200   44.8330   49.8420 H   0  0  0  0  0  0  0  0  0  0  0  0
    7.3649   42.5289   48.8437 H   0  0  0  0  0  0  0  0  0  0  0  0
  1  2  1  0
  2  3  2  0
  3  4  1  0
  4  5  1  0
  5  6  1  0
  6  7  1  0
  7  8  1  0
  8  9  2  0
  9 10  1  0
 10 11  2  0
 11 12  1  0
 12 13  2  0
  4 14  2  0
 14 15  1  0
 15 16  1  0
 16 17  2  0
 17 18  1  0
 18 19  2  0
 19  2  1  0
 13  8  1  0
 18 14  1  0
  1 20  1  0
  1 21  1  0
  6 22  1  0
  6 23  1  0
  7 24  1  0
  7 25  1  0
  9 26  1  0
 10 27  1  0
 11 28  1  0
 12 29  1  0
 13 30  1  0
 15 31  1  0
 16 32  1  0
M  END
>  <meeko>  (32) 
{"is_sidechain": false}

>  <CID>  (32) 
5329520

>  <pose_index>  (32) 
1

>  <docking_score>  (32) 
-8.075

>  <rmsd_to_best_selected>  (32) 
0.0

>  <MWT>  (32) 
255.2810000000001

>  <TPSA>  (32) 
89.71

>  <logP>  (32) 
1.5566

>  <HBD>  (32) 
2

>  <HBA>  (32) 
5

>  <SMILES>  (32) 
[H]c1c([H])c([H])c(C([H])([H])C([H])([H])Oc2nc(N([H])[H])nc3nc([H])n([H])c23)c([H])c1[H]

$$$$
5329520_pose3
     RDKit          3D

 32 34  0  0  0  0  0  0  0  0999 V2000
    1.4621   42.9382   52.8611 N   0  0  0  0  0  0  0  0  0  0  0  0
    2.6938   43.2175   52.2954 C   0  0  0  0  0  0  0  0  0  0  0  0
    3.3252   44.3130   52.7509 N   0  0  0  0  0  0  0  0  0  0  0  0
    4.5203   44.6187   52.2182 C   0  0  0  0  0  0  0  0  0  0  0  0
    5.1900   45.7274   52.6696 O   0  0  0  0  0  0  0  0  0  0  0  0
    6.0648   45.3546   53.7415 C   0  0  0  0  0  0  0  0  0  0  0  0
    6.9415   46.5612   54.0935 C   0  0  0  0  0  0  0  0  0  0  0  0
    8.0486   46.7935   53.0865 C   0  0  0  0  0  0  0  0  0  0  0  0
    8.6107   45.7144   52.3879 C   0  0  0  0  0  0  0  0  0  0  0  0
    9.6154   45.9266   51.4429 C   0  0  0  0  0  0  0  0  0  0  0  0
   10.0663   47.2193   51.1806 C   0  0  0  0  0  0  0  0  0  0  0  0
    9.5171   48.3005   51.8717 C   0  0  0  0  0  0  0  0  0  0  0  0
    8.5187   48.0888   52.8223 C   0  0  0  0  0  0  0  0  0  0  0  0
    5.0443   43.7995   51.2563 C   0  0  0  0  0  0  0  0  0  0  0  0
    6.1710   43.8018   50.4895 N   0  0  0  0  0  0  0  0  0  0  0  0
    6.1132   42.6966   49.6850 C   0  0  0  0  0  0  0  0  0  0  0  0
    5.0167   41.9977   49.8921 N   0  0  0  0  0  0  0  0  0  0  0  0
    4.3355   42.6868   50.8614 C   0  0  0  0  0  0  0  0  0  0  0  0
    3.1397   42.3569   51.3748 N   0  0  0  0  0  0  0  0  0  0  0  0
    1.5329   42.0988   53.4206 H   0  0  0  0  0  0  0  0  0  0  0  0
    1.0979   43.7669   53.3103 H   0  0  0  0  0  0  0  0  0  0  0  0
    5.4715   45.0581   54.6190 H   0  0  0  0  0  0  0  0  0  0  0  0
    6.6951   44.5061   53.4368 H   0  0  0  0  0  0  0  0  0  0  0  0
    6.3063   47.4585   54.1313 H   0  0  0  0  0  0  0  0  0  0  0  0
    7.4142   46.3560   55.0653 H   0  0  0  0  0  0  0  0  0  0  0  0
    8.2563   44.6922   52.5868 H   0  0  0  0  0  0  0  0  0  0  0  0
   10.0521   45.0727   50.9043 H   0  0  0  0  0  0  0  0  0  0  0  0
   10.8532   47.3870   50.4305 H   0  0  0  0  0  0  0  0  0  0  0  0
    9.8724   49.3211   51.6664 H   0  0  0  0  0  0  0  0  0  0  0  0
    8.0962   48.9445   53.3694 H   0  0  0  0  0  0  0  0  0  0  0  0
    6.8934   44.5110   50.4913 H   0  0  0  0  0  0  0  0  0  0  0  0
    6.8887   42.4249   48.9538 H   0  0  0  0  0  0  0  0  0  0  0  0
  1  2  1  0
  2  3  2  0
  3  4  1  0
  4  5  1  0
  5  6  1  0
  6  7  1  0
  7  8  1  0
  8  9  2  0
  9 10  1  0
 10 11  2  0
 11 12  1  0
 12 13  2  0
  4 14  2  0
 14 15  1  0
 15 16  1  0
 16 17  2  0
 17 18  1  0
 18 19  2  0
 19  2  1  0
 13  8  1  0
 18 14  1  0
  1 20  1  0
  1 21  1  0
  6 22  1  0
  6 23  1  0
  7 24  1  0
  7 25  1  0
  9 26  1  0
 10 27  1  0
 11 28  1  0
 12 29  1  0
 13 30  1  0
 15 31  1  0
 16 32  1  0
M  END
>  <meeko>  (33) 
{"is_sidechain": false}

>  <CID>  (33) 
5329520

>  <pose_index>  (33) 
3

>  <docking_score>  (33) 
-7.848

>  <rmsd_to_best_selected>  (33) 
1.4238911755111658

>  <MWT>  (33) 
255.2810000000001

>  <TPSA>  (33) 
89.71

>  <logP>  (33) 
1.5566

>  <HBD>  (33) 
2

>  <HBA>  (33) 
5

>  <SMILES>  (33) 
[H]c1c([H])c([H])c(C([H])([H])C([H])([H])Oc2nc(N([H])[H])nc3nc([H])n([H])c23)c([H])c1[H]

$$$$
5329520_pose6
     RDKit          3D

 32 34  0  0  0  0  0  0  0  0999 V2000
    1.1769   43.6056   51.1304 N   0  0  0  0  0  0  0  0  0  0  0  0
    2.5428   43.5696   51.3482 C   0  0  0  0  0  0  0  0  0  0  0  0
    2.9959   44.2562   52.4117 N   0  0  0  0  0  0  0  0  0  0  0  0
    4.3175   44.2508   52.6484 C   0  0  0  0  0  0  0  0  0  0  0  0
    4.8060   44.9370   53.7314 O   0  0  0  0  0  0  0  0  0  0  0  0
    5.5581   46.0711   53.2787 C   0  0  0  0  0  0  0  0  0  0  0  0
    6.8783   46.1174   54.0564 C   0  0  0  0  0  0  0  0  0  0  0  0
    8.0568   46.4966   53.1841 C   0  0  0  0  0  0  0  0  0  0  0  0
    8.4262   47.8417   53.0357 C   0  0  0  0  0  0  0  0  0  0  0  0
    9.5252   48.1933   52.2506 C   0  0  0  0  0  0  0  0  0  0  0  0
   10.2702   47.2051   51.6090 C   0  0  0  0  0  0  0  0  0  0  0  0
    9.9098   45.8640   51.7450 C   0  0  0  0  0  0  0  0  0  0  0  0
    8.8067   45.5112   52.5235 C   0  0  0  0  0  0  0  0  0  0  0  0
    5.1360   43.5378   51.8157 C   0  0  0  0  0  0  0  0  0  0  0  0
    6.4794   43.3294   51.7217 N   0  0  0  0  0  0  0  0  0  0  0  0
    6.6860   42.5181   50.6395 C   0  0  0  0  0  0  0  0  0  0  0  0
    5.5561   42.2044   50.0407 N   0  0  0  0  0  0  0  0  0  0  0  0
    4.5835   42.8488   50.7595 C   0  0  0  0  0  0  0  0  0  0  0  0
    3.2667   42.8379   50.4970 N   0  0  0  0  0  0  0  0  0  0  0  0
    0.8441   42.6719   50.9302 H   0  0  0  0  0  0  0  0  0  0  0  0
    0.7243   44.1071   51.8813 H   0  0  0  0  0  0  0  0  0  0  0  0
    5.7640   45.9748   52.2025 H   0  0  0  0  0  0  0  0  0  0  0  0
    4.9868   46.9957   53.4483 H   0  0  0  0  0  0  0  0  0  0  0  0
    6.7853   46.8583   54.8640 H   0  0  0  0  0  0  0  0  0  0  0  0
    7.0676   45.1080   54.4505 H   0  0  0  0  0  0  0  0  0  0  0  0
    7.8448   48.6260   53.5425 H   0  0  0  0  0  0  0  0  0  0  0  0
    9.8038   49.2515   52.1380 H   0  0  0  0  0  0  0  0  0  0  0  0
   11.1408   47.4822   50.9964 H   0  0  0  0  0  0  0  0  0  0  0  0
   10.4962   45.0836   51.2378 H   0  0  0  0  0  0  0  0  0  0  0  0
    8.5229   44.4529   52.6201 H   0  0  0  0  0  0  0  0  0  0  0  0
    7.1902   43.7332   52.3188 H   0  0  0  0  0  0  0  0  0  0  0  0
    7.6760   42.1702   50.3096 H   0  0  0  0  0  0  0  0  0  0  0  0
  1  2  1  0
  2  3  2  0
  3  4  1  0
  4  5  1  0
  5  6  1  0
  6  7  1  0
  7  8  1  0
  8  9  2  0
  9 10  1  0
 10 11  2  0
 11 12  1  0
 12 13  2  0
  4 14  2  0
 14 15  1  0
 15 16  1  0
 16 17  2  0
 17 18  1  0
 18 19  2  0
 19  2  1  0
 13  8  1  0
 18 14  1  0
  1 20  1  0
  1 21  1  0
  6 22  1  0
  6 23  1  0
  7 24  1  0
  7 25  1  0
  9 26  1  0
 10 27  1  0
 11 28  1  0
 12 29  1  0
 13 30  1  0
 15 31  1  0
 16 32  1  0
M  END
>  <meeko>  (34) 
{"is_sidechain": false}

>  <CID>  (34) 
5329520

>  <pose_index>  (34) 
6

>  <docking_score>  (34) 
-7.613

>  <rmsd_to_best_selected>  (34) 
1.7976852462917166

>  <MWT>  (34) 
255.2810000000001

>  <TPSA>  (34) 
89.71

>  <logP>  (34) 
1.5566

>  <HBD>  (34) 
2

>  <HBA>  (34) 
5

>  <SMILES>  (34) 
[H]c1c([H])c([H])c(C([H])([H])C([H])([H])Oc2nc(N([H])[H])nc3nc([H])n([H])c23)c([H])c1[H]

$$$$
5329520_pose9
     RDKit          3D

 32 34  0  0  0  0  0  0  0  0999 V2000
    4.2401   41.5129   49.4592 N   0  0  0  0  0  0  0  0  0  0  0  0
    4.2684   42.4753   50.4522 C   0  0  0  0  0  0  0  0  0  0  0  0
    5.3671   42.5013   51.2273 N   0  0  0  0  0  0  0  0  0  0  0  0
    5.4251   43.4178   52.2068 C   0  0  0  0  0  0  0  0  0  0  0  0
    6.5376   43.4715   53.0083 O   0  0  0  0  0  0  0  0  0  0  0  0
    7.6956   43.7260   52.2029 C   0  0  0  0  0  0  0  0  0  0  0  0
    8.6917   44.5437   53.0319 C   0  0  0  0  0  0  0  0  0  0  0  0
    8.5282   46.0367   52.8351 C   0  0  0  0  0  0  0  0  0  0  0  0
    7.2528   46.6188   52.8454 C   0  0  0  0  0  0  0  0  0  0  0  0
    7.0999   47.9972   52.6869 C   0  0  0  0  0  0  0  0  0  0  0  0
    8.2206   48.8099   52.5212 C   0  0  0  0  0  0  0  0  0  0  0  0
    9.4945   48.2414   52.5047 C   0  0  0  0  0  0  0  0  0  0  0  0
    9.6480   46.8631   52.6557 C   0  0  0  0  0  0  0  0  0  0  0  0
    4.3807   44.2884   52.3620 C   0  0  0  0  0  0  0  0  0  0  0  0
    4.0776   45.2942   53.2294 N   0  0  0  0  0  0  0  0  0  0  0  0
    2.8526   45.7848   52.8651 C   0  0  0  0  0  0  0  0  0  0  0  0
    2.3610   45.1472   51.8228 N   0  0  0  0  0  0  0  0  0  0  0  0
    3.3013   44.2003   51.5106 C   0  0  0  0  0  0  0  0  0  0  0  0
    3.2159   43.2950   50.5234 N   0  0  0  0  0  0  0  0  0  0  0  0
    5.1875   41.2387   49.2302 H   0  0  0  0  0  0  0  0  0  0  0  0
    3.5946   40.7788   49.7130 H   0  0  0  0  0  0  0  0  0  0  0  0
    8.1561   42.7731   51.9029 H   0  0  0  0  0  0  0  0  0  0  0  0
    7.4112   44.2823   51.2975 H   0  0  0  0  0  0  0  0  0  0  0  0
    8.5395   44.3101   54.0959 H   0  0  0  0  0  0  0  0  0  0  0  0
    9.7040   44.2731   52.6971 H   0  0  0  0  0  0  0  0  0  0  0  0
    6.3648   45.9837   52.9795 H   0  0  0  0  0  0  0  0  0  0  0  0
    6.0942   48.4427   52.6927 H   0  0  0  0  0  0  0  0  0  0  0  0
    8.1006   49.8970   52.4037 H   0  0  0  0  0  0  0  0  0  0  0  0
   10.3795   48.8812   52.3724 H   0  0  0  0  0  0  0  0  0  0  0  0
   10.6549   46.4206   52.6339 H   0  0  0  0  0  0  0  0  0  0  0  0
    4.6382   45.5929   54.0173 H   0  0  0  0  0  0  0  0  0  0  0  0
    2.3410   46.6112   53.3802 H   0  0  0  0  0  0  0  0  0  0  0  0
  1  2  1  0
  2  3  2  0
  3  4  1  0
  4  5  1  0
  5  6  1  0
  6  7  1  0
  7  8  1  0
  8  9  2  0
  9 10  1  0
 10 11  2  0
 11 12  1  0
 12 13  2  0
  4 14  2  0
 14 15  1  0
 15 16  1  0
 16 17  2  0
 17 18  1  0
 18 19  2  0
 19  2  1  0
 13  8  1  0
 18 14  1  0
  1 20  1  0
  1 21  1  0
  6 22  1  0
  6 23  1  0
  7 24  1  0
  7 25  1  0
  9 26  1  0
 10 27  1  0
 11 28  1  0
 12 29  1  0
 13 30  1  0
 15 31  1  0
 16 32  1  0
M  END
>  <meeko>  (35) 
{"is_sidechain": false}

>  <CID>  (35) 
5329520

>  <pose_index>  (35) 
9

>  <docking_score>  (35) 
-7.461

>  <rmsd_to_best_selected>  (35) 
0.4621266117862352

>  <MWT>  (35) 
255.2810000000001

>  <TPSA>  (35) 
89.71

>  <logP>  (35) 
1.5566

>  <HBD>  (35) 
2

>  <HBA>  (35) 
5

>  <SMILES>  (35) 
[H]c1c([H])c([H])c(C([H])([H])C([H])([H])Oc2nc(N([H])[H])nc3nc([H])n([H])c23)c([H])c1[H]

$$$$
5329520_pose10
     RDKit          3D

 32 34  0  0  0  0  0  0  0  0999 V2000
    4.5417   40.5627   50.3631 N   0  0  0  0  0  0  0  0  0  0  0  0
    4.4273   41.8645   50.8174 C   0  0  0  0  0  0  0  0  0  0  0  0
    5.4727   42.6742   50.5779 N   0  0  0  0  0  0  0  0  0  0  0  0
    5.3997   43.9429   51.0123 C   0  0  0  0  0  0  0  0  0  0  0  0
    6.4495   44.7937   50.7764 O   0  0  0  0  0  0  0  0  0  0  0  0
    7.6108   44.3248   51.4754 C   0  0  0  0  0  0  0  0  0  0  0  0
    7.5668   44.8694   52.9063 C   0  0  0  0  0  0  0  0  0  0  0  0
    8.1368   46.2684   53.0186 C   0  0  0  0  0  0  0  0  0  0  0  0
    9.1463   46.6943   52.1432 C   0  0  0  0  0  0  0  0  0  0  0  0
    9.6595   47.9898   52.2288 C   0  0  0  0  0  0  0  0  0  0  0  0
    9.1653   48.8742   53.1855 C   0  0  0  0  0  0  0  0  0  0  0  0
    8.1640   48.4608   54.0641 C   0  0  0  0  0  0  0  0  0  0  0  0
    7.6565   47.1641   53.9855 C   0  0  0  0  0  0  0  0  0  0  0  0
    4.2660   44.3566   51.6579 C   0  0  0  0  0  0  0  0  0  0  0  0
    3.8532   45.5139   52.2460 N   0  0  0  0  0  0  0  0  0  0  0  0
    2.5977   45.2883   52.7427 C   0  0  0  0  0  0  0  0  0  0  0  0
    2.1934   44.0568   52.5082 N   0  0  0  0  0  0  0  0  0  0  0  0
    3.2346   43.4629   51.8440 C   0  0  0  0  0  0  0  0  0  0  0  0
    3.2814   42.1890   51.4215 N   0  0  0  0  0  0  0  0  0  0  0  0
    4.0545   40.4697   49.4813 H   0  0  0  0  0  0  0  0  0  0  0  0
    5.5115   40.2766   50.3882 H   0  0  0  0  0  0  0  0  0  0  0  0
    7.6128   43.2250   51.4964 H   0  0  0  0  0  0  0  0  0  0  0  0
    8.5229   44.6708   50.9672 H   0  0  0  0  0  0  0  0  0  0  0  0
    6.5199   44.8882   53.2434 H   0  0  0  0  0  0  0  0  0  0  0  0
    8.1846   44.2084   53.5319 H   0  0  0  0  0  0  0  0  0  0  0  0
    9.5370   46.0020   51.3829 H   0  0  0  0  0  0  0  0  0  0  0  0
   10.4545   48.3126   51.5405 H   0  0  0  0  0  0  0  0  0  0  0  0
    9.5645   49.8974   53.2477 H   0  0  0  0  0  0  0  0  0  0  0  0
    7.7740   49.1584   54.8199 H   0  0  0  0  0  0  0  0  0  0  0  0
    6.8735   46.8412   54.6874 H   0  0  0  0  0  0  0  0  0  0  0  0
    4.3928   46.3661   52.3326 H   0  0  0  0  0  0  0  0  0  0  0  0
    1.9992   46.0435   53.2731 H   0  0  0  0  0  0  0  0  0  0  0  0
  1  2  1  0
  2  3  2  0
  3  4  1  0
  4  5  1  0
  5  6  1  0
  6  7  1  0
  7  8  1  0
  8  9  2  0
  9 10  1  0
 10 11  2  0
 11 12  1  0
 12 13  2  0
  4 14  2  0
 14 15  1  0
 15 16  1  0
 16 17  2  0
 17 18  1  0
 18 19  2  0
 19  2  1  0
 13  8  1  0
 18 14  1  0
  1 20  1  0
  1 21  1  0
  6 22  1  0
  6 23  1  0
  7 24  1  0
  7 25  1  0
  9 26  1  0
 10 27  1  0
 11 28  1  0
 12 29  1  0
 13 30  1  0
 15 31  1  0
 16 32  1  0
M  END
>  <meeko>  (36) 
{"is_sidechain": false}

>  <CID>  (36) 
5329520

>  <pose_index>  (36) 
10

>  <docking_score>  (36) 
-7.458

>  <rmsd_to_best_selected>  (36) 
1.2295763351193905

>  <MWT>  (36) 
255.2810000000001

>  <TPSA>  (36) 
89.71

>  <logP>  (36) 
1.5566

>  <HBD>  (36) 
2

>  <HBA>  (36) 
5

>  <SMILES>  (36) 
[H]c1c([H])c([H])c(C([H])([H])C([H])([H])Oc2nc(N([H])[H])nc3nc([H])n([H])c23)c([H])c1[H]

$$$$
5329552_pose1
     RDKit          3D

 45 48  0  0  0  0  0  0  0  0999 V2000
    8.3330   43.9150   49.1460 Br  0  0  0  0  0  0  0  0  0  0  0  0
    6.7360   43.1030   49.7480 C   0  0  0  0  0  0  0  0  0  0  0  0
    6.5300   41.7450   49.5300 C   0  0  0  0  0  0  0  0  0  0  0  0
    5.3510   41.1570   49.9790 C   0  0  0  0  0  0  0  0  0  0  0  0
    4.3880   41.9270   50.6410 C   0  0  0  0  0  0  0  0  0  0  0  0
    4.5750   43.2960   50.8630 C   0  0  0  0  0  0  0  0  0  0  0  0
    3.6530   44.1130   51.5260 N   0  0  0  0  0  0  0  0  0  0  0  0
    3.5830   44.6850   52.7970 C   0  0  0  0  0  0  0  0  0  0  0  0
    4.6300   45.3630   53.3160 N   0  0  0  0  0  0  0  0  0  0  0  0
    4.5270   45.9040   54.5440 C   0  0  0  0  0  0  0  0  0  0  0  0
    5.5650   46.5970   55.1250 O   0  0  0  0  0  0  0  0  0  0  0  0
    6.8570   46.3240   54.5710 C   0  0  0  0  0  0  0  0  0  0  0  0
    7.4780   47.5810   53.9280 C   0  0  0  0  0  0  0  0  0  0  0  0
    8.9170   47.8050   54.4170 C   0  0  0  0  0  0  0  0  0  0  0  0
    9.9140   46.8140   53.8160 C   0  0  0  0  0  0  0  0  0  0  0  0
    9.8440   46.7980   52.2930 C   0  0  0  0  0  0  0  0  0  0  0  0
    8.4260   46.5500   51.7890 C   0  0  0  0  0  0  0  0  0  0  0  0
    7.4320   47.5420   52.3900 C   0  0  0  0  0  0  0  0  0  0  0  0
    3.3510   45.7350   55.2220 C   0  0  0  0  0  0  0  0  0  0  0  0
    2.8750   46.1110   56.4440 N   0  0  0  0  0  0  0  0  0  0  0  0
    1.5970   45.6320   56.5470 C   0  0  0  0  0  0  0  0  0  0  0  0
    1.2350   44.9760   55.4640 N   0  0  0  0  0  0  0  0  0  0  0  0
    2.3240   45.0340   54.6330 C   0  0  0  0  0  0  0  0  0  0  0  0
    2.4070   44.4940   53.4090 N   0  0  0  0  0  0  0  0  0  0  0  0
    5.7730   43.8710   50.4080 C   0  0  0  0  0  0  0  0  0  0  0  0
    7.2893   41.1431   49.0092 H   0  0  0  0  0  0  0  0  0  0  0  0
    5.1757   40.0838   49.8130 H   0  0  0  0  0  0  0  0  0  0  0  0
    3.4642   41.4458   50.9945 H   0  0  0  0  0  0  0  0  0  0  0  0
    2.7990   44.3360   51.0320 H   0  0  0  0  0  0  0  0  0  0  0  0
    7.5210   45.9684   55.3727 H   0  0  0  0  0  0  0  0  0  0  0  0
    6.7405   45.5599   53.7884 H   0  0  0  0  0  0  0  0  0  0  0  0
    6.8603   48.4318   54.2515 H   0  0  0  0  0  0  0  0  0  0  0  0
    9.2262   48.8240   54.1411 H   0  0  0  0  0  0  0  0  0  0  0  0
    8.9209   47.6552   55.5067 H   0  0  0  0  0  0  0  0  0  0  0  0
   10.9307   47.1004   54.1232 H   0  0  0  0  0  0  0  0  0  0  0  0
    9.6606   45.8080   54.1817 H   0  0  0  0  0  0  0  0  0  0  0  0
   10.1919   47.7692   51.9112 H   0  0  0  0  0  0  0  0  0  0  0  0
   10.4814   45.9773   51.9321 H   0  0  0  0  0  0  0  0  0  0  0  0
    8.4138   46.6522   50.6938 H   0  0  0  0  0  0  0  0  0  0  0  0
    8.1259   45.5364   52.0934 H   0  0  0  0  0  0  0  0  0  0  0  0
    7.6639   48.5466   52.0066 H   0  0  0  0  0  0  0  0  0  0  0  0
    6.4230   47.2146   52.0988 H   0  0  0  0  0  0  0  0  0  0  0  0
    3.3790   46.6440   57.1400 H   0  0  0  0  0  0  0  0  0  0  0  0
    0.9518   45.7771   57.4260 H   0  0  0  0  0  0  0  0  0  0  0  0
    5.9561   44.9429   50.5738 H   0  0  0  0  0  0  0  0  0  0  0  0
  1  2  1  0
  2  3  2  0
  3  4  1  0
  4  5  2  0
  5  6  1  0
  6  7  1  0
  7  8  1  0
  8  9  2  0
  9 10  1  0
 10 11  1  0
 11 12  1  0
 12 13  1  0
 13 14  1  0
 14 15  1  0
 15 16  1  0
 16 17  1  0
 17 18  1  0
 10 19  2  0
 19 20  1  0
 20 21  1  0
 21 22  2  0
 22 23  1  0
 23 24  2  0
  6 25  2  0
 25  2  1  0
 24  8  1  0
 18 13  1  0
 23 19  1  0
  3 26  1  0
  4 27  1  0
  5 28  1  0
  7 29  1  0
 12 30  1  0
 12 31  1  0
 13 32  1  0
 14 33  1  0
 14 34  1  0
 15 35  1  0
 15 36  1  0
 16 37  1  0
 16 38  1  0
 17 39  1  0
 17 40  1  0
 18 41  1  0
 18 42  1  0
 20 43  1  0
 21 44  1  0
 25 45  1  0
M  END
>  <meeko>  (37) 
{"is_sidechain": false}

>  <CID>  (37) 
5329552

>  <pose_index>  (37) 
1

>  <docking_score>  (37) 
-9.68

>  <rmsd_to_best_selected>  (37) 
0.0

>  <MWT>  (37) 
402.29599999999976

>  <TPSA>  (37) 
75.72

>  <logP>  (37) 
4.818100000000003

>  <HBD>  (37) 
2

>  <HBA>  (37) 
5

>  <SMILES>  (37) 
[H]c1c([H])c(Br)c([H])c(N([H])c2nc(OC([H])([H])C3([H])C([H])([H])C([H])([H])C([H])([H])C([H])([H])C3([H])[H])c3c(n2)nc([H])n3[H])c1[H]

$$$$
5329552_pose6
     RDKit          3D

 45 48  0  0  0  0  0  0  0  0999 V2000
    8.6547   41.5181   51.9363 Br  0  0  0  0  0  0  0  0  0  0  0  0
    6.7705   41.5583   52.0883 C   0  0  0  0  0  0  0  0  0  0  0  0
    6.1095   40.5161   52.7279 C   0  0  0  0  0  0  0  0  0  0  0  0
    4.7223   40.5578   52.8376 C   0  0  0  0  0  0  0  0  0  0  0  0
    4.0070   41.6377   52.3066 C   0  0  0  0  0  0  0  0  0  0  0  0
    4.6546   42.6928   51.6549 C   0  0  0  0  0  0  0  0  0  0  0  0
    3.9941   43.8008   51.1142 N   0  0  0  0  0  0  0  0  0  0  0  0
    3.9782   45.1676   51.3942 C   0  0  0  0  0  0  0  0  0  0  0  0
    5.1255   45.8726   51.4947 N   0  0  0  0  0  0  0  0  0  0  0  0
    5.0733   47.1907   51.7643 C   0  0  0  0  0  0  0  0  0  0  0  0
    6.2103   47.9563   51.8861 O   0  0  0  0  0  0  0  0  0  0  0  0
    6.8980   47.8197   53.1346 C   0  0  0  0  0  0  0  0  0  0  0  0
    8.2689   47.1356   52.9590 C   0  0  0  0  0  0  0  0  0  0  0  0
    9.2101   47.4642   54.1286 C   0  0  0  0  0  0  0  0  0  0  0  0
    8.8366   46.7357   55.4198 C   0  0  0  0  0  0  0  0  0  0  0  0
    8.7262   45.2296   55.2044 C   0  0  0  0  0  0  0  0  0  0  0  0
    7.7738   44.8845   54.0636 C   0  0  0  0  0  0  0  0  0  0  0  0
    8.1492   45.6132   52.7750 C   0  0  0  0  0  0  0  0  0  0  0  0
    3.8407   47.7622   51.9310 C   0  0  0  0  0  0  0  0  0  0  0  0
    3.3862   49.0173   52.2084 N   0  0  0  0  0  0  0  0  0  0  0  0
    2.0195   48.9537   52.2474 C   0  0  0  0  0  0  0  0  0  0  0  0
    1.5824   47.7348   52.0095 N   0  0  0  0  0  0  0  0  0  0  0  0
    2.7118   46.9847   51.8126 C   0  0  0  0  0  0  0  0  0  0  0  0
    2.7462   45.6731   51.5403 N   0  0  0  0  0  0  0  0  0  0  0  0
    6.0550   42.6354   51.5593 C   0  0  0  0  0  0  0  0  0  0  0  0
    6.6756   39.6688   53.1424 H   0  0  0  0  0  0  0  0  0  0  0  0
    4.1870   39.7403   53.3427 H   0  0  0  0  0  0  0  0  0  0  0  0
    2.9115   41.6572   52.4041 H   0  0  0  0  0  0  0  0  0  0  0  0
    3.3266   43.6214   50.3753 H   0  0  0  0  0  0  0  0  0  0  0  0
    7.0512   48.8189   53.5684 H   0  0  0  0  0  0  0  0  0  0  0  0
    6.2841   47.1920   53.7973 H   0  0  0  0  0  0  0  0  0  0  0  0
    8.7030   47.5426   52.0339 H   0  0  0  0  0  0  0  0  0  0  0  0
   10.2334   47.1754   53.8467 H   0  0  0  0  0  0  0  0  0  0  0  0
    9.1269   48.5435   54.3242 H   0  0  0  0  0  0  0  0  0  0  0  0
    9.6102   46.9321   56.1767 H   0  0  0  0  0  0  0  0  0  0  0  0
    7.8566   47.1078   55.7530 H   0  0  0  0  0  0  0  0  0  0  0  0
    9.7235   44.8304   54.9677 H   0  0  0  0  0  0  0  0  0  0  0  0
    8.3278   44.7823   56.1270 H   0  0  0  0  0  0  0  0  0  0  0  0
    7.8111   43.8000   53.8837 H   0  0  0  0  0  0  0  0  0  0  0  0
    6.7613   45.2012   54.3543 H   0  0  0  0  0  0  0  0  0  0  0  0
    9.1162   45.2256   52.4219 H   0  0  0  0  0  0  0  0  0  0  0  0
    7.3441   45.4318   52.0477 H   0  0  0  0  0  0  0  0  0  0  0  0
    3.9577   49.8381   52.3582 H   0  0  0  0  0  0  0  0  0  0  0  0
    1.3666   49.8149   52.4523 H   0  0  0  0  0  0  0  0  0  0  0  0
    6.5970   43.4518   51.0597 H   0  0  0  0  0  0  0  0  0  0  0  0
  1  2  1  0
  2  3  2  0
  3  4  1  0
  4  5  2  0
  5  6  1  0
  6  7  1  0
  7  8  1  0
  8  9  2  0
  9 10  1  0
 10 11  1  0
 11 12  1  0
 12 13  1  0
 13 14  1  0
 14 15  1  0
 15 16  1  0
 16 17  1  0
 17 18  1  0
 10 19  2  0
 19 20  1  0
 20 21  1  0
 21 22  2  0
 22 23  1  0
 23 24  2  0
  6 25  2  0
 25  2  1  0
 24  8  1  0
 18 13  1  0
 23 19  1  0
  3 26  1  0
  4 27  1  0
  5 28  1  0
  7 29  1  0
 12 30  1  0
 12 31  1  0
 13 32  1  0
 14 33  1  0
 14 34  1  0
 15 35  1  0
 15 36  1  0
 16 37  1  0
 16 38  1  0
 17 39  1  0
 17 40  1  0
 18 41  1  0
 18 42  1  0
 20 43  1  0
 21 44  1  0
 25 45  1  0
M  END
>  <meeko>  (38) 
{"is_sidechain": false}

>  <CID>  (38) 
5329552

>  <pose_index>  (38) 
6

>  <docking_score>  (38) 
-8.752

>  <rmsd_to_best_selected>  (38) 
0.9808259373486957

>  <MWT>  (38) 
402.29599999999976

>  <TPSA>  (38) 
75.72

>  <logP>  (38) 
4.818100000000003

>  <HBD>  (38) 
2

>  <HBA>  (38) 
5

>  <SMILES>  (38) 
[H]c1c([H])c(Br)c([H])c(N([H])c2nc(OC([H])([H])C3([H])C([H])([H])C([H])([H])C([H])([H])C([H])([H])C3([H])[H])c3c(n2)nc([H])n3[H])c1[H]

$$$$
5329552_pose7
     RDKit          3D

 45 48  0  0  0  0  0  0  0  0999 V2000
    8.3058   41.0885   53.3282 Br  0  0  0  0  0  0  0  0  0  0  0  0
    6.4579   41.2939   52.9842 C   0  0  0  0  0  0  0  0  0  0  0  0
    5.7387   40.2387   52.4349 C   0  0  0  0  0  0  0  0  0  0  0  0
    4.3786   40.4000   52.1884 C   0  0  0  0  0  0  0  0  0  0  0  0
    3.7476   41.6112   52.4915 C   0  0  0  0  0  0  0  0  0  0  0  0
    4.4553   42.6861   53.0394 C   0  0  0  0  0  0  0  0  0  0  0  0
    3.8777   43.9154   53.3717 N   0  0  0  0  0  0  0  0  0  0  0  0
    3.9165   45.1998   52.8254 C   0  0  0  0  0  0  0  0  0  0  0  0
    4.9766   46.0113   53.0261 N   0  0  0  0  0  0  0  0  0  0  0  0
    4.9822   47.2431   52.4832 C   0  0  0  0  0  0  0  0  0  0  0  0
    6.0321   48.1148   52.6615 O   0  0  0  0  0  0  0  0  0  0  0  0
    6.7472   47.9532   53.8922 C   0  0  0  0  0  0  0  0  0  0  0  0
    8.2676   47.8408   53.6579 C   0  0  0  0  0  0  0  0  0  0  0  0
    8.9609   47.1271   54.8287 C   0  0  0  0  0  0  0  0  0  0  0  0
    8.6968   45.6232   54.8533 C   0  0  0  0  0  0  0  0  0  0  0  0
    9.0464   44.9672   53.5211 C   0  0  0  0  0  0  0  0  0  0  0  0
    8.3440   45.6466   52.3496 C   0  0  0  0  0  0  0  0  0  0  0  0
    8.6106   47.1505   52.3271 C   0  0  0  0  0  0  0  0  0  0  0  0
    3.8931   47.6226   51.7463 C   0  0  0  0  0  0  0  0  0  0  0  0
    3.5309   48.7474   51.0655 N   0  0  0  0  0  0  0  0  0  0  0  0
    2.2975   48.5106   50.5204 C   0  0  0  0  0  0  0  0  0  0  0  0
    1.8580   47.3056   50.8151 N   0  0  0  0  0  0  0  0  0  0  0  0
    2.8471   46.7450   51.5811 C   0  0  0  0  0  0  0  0  0  0  0  0
    2.8288   45.5137   52.1103 N   0  0  0  0  0  0  0  0  0  0  0  0
    5.8264   42.5031   53.2864 C   0  0  0  0  0  0  0  0  0  0  0  0
    6.2385   39.2878   52.1980 H   0  0  0  0  0  0  0  0  0  0  0  0
    3.7981   39.5728   51.7539 H   0  0  0  0  0  0  0  0  0  0  0  0
    2.6709   41.7207   52.2946 H   0  0  0  0  0  0  0  0  0  0  0  0
    3.3296   43.9509   54.2211 H   0  0  0  0  0  0  0  0  0  0  0  0
    6.5491   48.8225   54.5364 H   0  0  0  0  0  0  0  0  0  0  0  0
    6.4040   47.0230   54.3686 H   0  0  0  0  0  0  0  0  0  0  0  0
    8.6492   48.8708   53.5984 H   0  0  0  0  0  0  0  0  0  0  0  0
   10.0455   47.2909   54.7460 H   0  0  0  0  0  0  0  0  0  0  0  0
    8.5510   47.5477   55.7588 H   0  0  0  0  0  0  0  0  0  0  0  0
    9.3074   45.1669   55.6464 H   0  0  0  0  0  0  0  0  0  0  0  0
    7.6245   45.4663   55.0419 H   0  0  0  0  0  0  0  0  0  0  0  0
   10.1340   45.0303   53.3684 H   0  0  0  0  0  0  0  0  0  0  0  0
    8.7108   43.9203   53.5586 H   0  0  0  0  0  0  0  0  0  0  0  0
    8.7092   45.2056   51.4104 H   0  0  0  0  0  0  0  0  0  0  0  0
    7.2608   45.4918   52.4624 H   0  0  0  0  0  0  0  0  0  0  0  0
    9.6768   47.3144   52.1116 H   0  0  0  0  0  0  0  0  0  0  0  0
    7.9636   47.5882   51.5526 H   0  0  0  0  0  0  0  0  0  0  0  0
    4.0749   49.5952   50.9826 H   0  0  0  0  0  0  0  0  0  0  0  0
    1.7419   49.2384   49.9107 H   0  0  0  0  0  0  0  0  0  0  0  0
    6.4119   43.3248   53.7246 H   0  0  0  0  0  0  0  0  0  0  0  0
  1  2  1  0
  2  3  2  0
  3  4  1  0
  4  5  2  0
  5  6  1  0
  6  7  1  0
  7  8  1  0
  8  9  2  0
  9 10  1  0
 10 11  1  0
 11 12  1  0
 12 13  1  0
 13 14  1  0
 14 15  1  0
 15 16  1  0
 16 17  1  0
 17 18  1  0
 10 19  2  0
 19 20  1  0
 20 21  1  0
 21 22  2  0
 22 23  1  0
 23 24  2  0
  6 25  2  0
 25  2  1  0
 24  8  1  0
 18 13  1  0
 23 19  1  0
  3 26  1  0
  4 27  1  0
  5 28  1  0
  7 29  1  0
 12 30  1  0
 12 31  1  0
 13 32  1  0
 14 33  1  0
 14 34  1  0
 15 35  1  0
 15 36  1  0
 16 37  1  0
 16 38  1  0
 17 39  1  0
 17 40  1  0
 18 41  1  0
 18 42  1  0
 20 43  1  0
 21 44  1  0
 25 45  1  0
M  END
>  <meeko>  (39) 
{"is_sidechain": false}

>  <CID>  (39) 
5329552

>  <pose_index>  (39) 
7

>  <docking_score>  (39) 
-8.519

>  <rmsd_to_best_selected>  (39) 
1.3811512107552255

>  <MWT>  (39) 
402.29599999999976

>  <TPSA>  (39) 
75.72

>  <logP>  (39) 
4.818100000000003

>  <HBD>  (39) 
2

>  <HBA>  (39) 
5

>  <SMILES>  (39) 
[H]c1c([H])c(Br)c([H])c(N([H])c2nc(OC([H])([H])C3([H])C([H])([H])C([H])([H])C([H])([H])C([H])([H])C3([H])[H])c3c(n2)nc([H])n3[H])c1[H]

$$$$
5329552_pose8
     RDKit          3D

 45 48  0  0  0  0  0  0  0  0999 V2000
    7.7178   41.3591   55.0274 Br  0  0  0  0  0  0  0  0  0  0  0  0
    6.1275   41.4458   54.0084 C   0  0  0  0  0  0  0  0  0  0  0  0
    5.1527   40.4671   54.1697 C   0  0  0  0  0  0  0  0  0  0  0  0
    3.9855   40.5431   53.4164 C   0  0  0  0  0  0  0  0  0  0  0  0
    3.7997   41.5909   52.5087 C   0  0  0  0  0  0  0  0  0  0  0  0
    4.7722   42.5807   52.3275 C   0  0  0  0  0  0  0  0  0  0  0  0
    4.6386   43.6564   51.4434 N   0  0  0  0  0  0  0  0  0  0  0  0
    4.4108   45.0255   51.5881 C   0  0  0  0  0  0  0  0  0  0  0  0
    5.3531   45.8376   52.1151 N   0  0  0  0  0  0  0  0  0  0  0  0
    5.1013   47.1540   52.2387 C   0  0  0  0  0  0  0  0  0  0  0  0
    6.0208   48.0257   52.7752 O   0  0  0  0  0  0  0  0  0  0  0  0
    6.5903   47.6081   54.0218 C   0  0  0  0  0  0  0  0  0  0  0  0
    8.1292   47.7010   54.0044 C   0  0  0  0  0  0  0  0  0  0  0  0
    8.7643   46.6137   54.8854 C   0  0  0  0  0  0  0  0  0  0  0  0
    8.6863   45.2201   54.2630 C   0  0  0  0  0  0  0  0  0  0  0  0
    9.2675   45.1988   52.8536 C   0  0  0  0  0  0  0  0  0  0  0  0
    8.6288   46.2548   51.9561 C   0  0  0  0  0  0  0  0  0  0  0  0
    8.7092   47.6476   52.5798 C   0  0  0  0  0  0  0  0  0  0  0  0
    3.8814   47.6138   51.8228 C   0  0  0  0  0  0  0  0  0  0  0  0
    3.2670   48.8308   51.7878 N   0  0  0  0  0  0  0  0  0  0  0  0
    2.0241   48.6424   51.2465 C   0  0  0  0  0  0  0  0  0  0  0  0
    1.8148   47.3804   50.9360 N   0  0  0  0  0  0  0  0  0  0  0  0
    2.9690   46.7316   51.2935 C   0  0  0  0  0  0  0  0  0  0  0  0
    3.2049   45.4194   51.1582 N   0  0  0  0  0  0  0  0  0  0  0  0
    5.9416   42.4914   53.1010 C   0  0  0  0  0  0  0  0  0  0  0  0
    5.3025   39.6437   54.8835 H   0  0  0  0  0  0  0  0  0  0  0  0
    3.2058   39.7763   53.5352 H   0  0  0  0  0  0  0  0  0  0  0  0
    2.8688   41.6380   51.9246 H   0  0  0  0  0  0  0  0  0  0  0  0
    4.6592   43.4425   50.4548 H   0  0  0  0  0  0  0  0  0  0  0  0
    6.2031   48.2528   54.8245 H   0  0  0  0  0  0  0  0  0  0  0  0
    6.3118   46.5575   54.1915 H   0  0  0  0  0  0  0  0  0  0  0  0
    8.3844   48.6858   54.4229 H   0  0  0  0  0  0  0  0  0  0  0  0
    9.8226   46.8669   55.0465 H   0  0  0  0  0  0  0  0  0  0  0  0
    8.2009   46.5844   55.8297 H   0  0  0  0  0  0  0  0  0  0  0  0
    9.2512   44.5165   54.8922 H   0  0  0  0  0  0  0  0  0  0  0  0
    7.6269   44.9308   54.2014 H   0  0  0  0  0  0  0  0  0  0  0  0
   10.3492   45.3899   52.9125 H   0  0  0  0  0  0  0  0  0  0  0  0
    9.0614   44.2109   52.4158 H   0  0  0  0  0  0  0  0  0  0  0  0
    9.1533   46.2660   50.9893 H   0  0  0  0  0  0  0  0  0  0  0  0
    7.5674   45.9978   51.8247 H   0  0  0  0  0  0  0  0  0  0  0  0
    9.7649   47.9540   52.6191 H   0  0  0  0  0  0  0  0  0  0  0  0
    8.1091   48.3244   51.9539 H   0  0  0  0  0  0  0  0  0  0  0  0
    3.6616   49.7064   52.1049 H   0  0  0  0  0  0  0  0  0  0  0  0
    1.2902   49.4467   51.0901 H   0  0  0  0  0  0  0  0  0  0  0  0
    6.7234   43.2571   52.9902 H   0  0  0  0  0  0  0  0  0  0  0  0
  1  2  1  0
  2  3  2  0
  3  4  1  0
  4  5  2  0
  5  6  1  0
  6  7  1  0
  7  8  1  0
  8  9  2  0
  9 10  1  0
 10 11  1  0
 11 12  1  0
 12 13  1  0
 13 14  1  0
 14 15  1  0
 15 16  1  0
 16 17  1  0
 17 18  1  0
 10 19  2  0
 19 20  1  0
 20 21  1  0
 21 22  2  0
 22 23  1  0
 23 24  2  0
  6 25  2  0
 25  2  1  0
 24  8  1  0
 18 13  1  0
 23 19  1  0
  3 26  1  0
  4 27  1  0
  5 28  1  0
  7 29  1  0
 12 30  1  0
 12 31  1  0
 13 32  1  0
 14 33  1  0
 14 34  1  0
 15 35  1  0
 15 36  1  0
 16 37  1  0
 16 38  1  0
 17 39  1  0
 17 40  1  0
 18 41  1  0
 18 42  1  0
 20 43  1  0
 21 44  1  0
 25 45  1  0
M  END
>  <meeko>  (40) 
{"is_sidechain": false}

>  <CID>  (40) 
5329552

>  <pose_index>  (40) 
8

>  <docking_score>  (40) 
-8.396

>  <rmsd_to_best_selected>  (40) 
1.3702861869311609

>  <MWT>  (40) 
402.29599999999976

>  <TPSA>  (40) 
75.72

>  <logP>  (40) 
4.818100000000003

>  <HBD>  (40) 
2

>  <HBA>  (40) 
5

>  <SMILES>  (40) 
[H]c1c([H])c(Br)c([H])c(N([H])c2nc(OC([H])([H])C3([H])C([H])([H])C([H])([H])C([H])([H])C([H])([H])C3([H])[H])c3c(n2)nc([H])n3[H])c1[H]

$$$$
5329552_pose9
     RDKit          3D

 45 48  0  0  0  0  0  0  0  0999 V2000
    7.7086   41.6146   54.3710 Br  0  0  0  0  0  0  0  0  0  0  0  0
    5.9472   41.5093   53.6909 C   0  0  0  0  0  0  0  0  0  0  0  0
    5.4495   40.2876   53.2545 C   0  0  0  0  0  0  0  0  0  0  0  0
    4.1518   40.2218   52.7588 C   0  0  0  0  0  0  0  0  0  0  0  0
    3.3609   41.3739   52.7011 C   0  0  0  0  0  0  0  0  0  0  0  0
    3.8460   42.6147   53.1297 C   0  0  0  0  0  0  0  0  0  0  0  0
    3.0997   43.7973   53.1055 N   0  0  0  0  0  0  0  0  0  0  0  0
    3.3233   45.0911   52.6326 C   0  0  0  0  0  0  0  0  0  0  0  0
    4.4507   45.7643   52.9501 N   0  0  0  0  0  0  0  0  0  0  0  0
    4.6345   47.0108   52.4760 C   0  0  0  0  0  0  0  0  0  0  0  0
    5.7601   47.7454   52.7745 O   0  0  0  0  0  0  0  0  0  0  0  0
    6.7350   47.0596   53.5674 C   0  0  0  0  0  0  0  0  0  0  0  0
    7.8317   46.4187   52.6948 C   0  0  0  0  0  0  0  0  0  0  0  0
    8.8938   47.4513   52.2850 C   0  0  0  0  0  0  0  0  0  0  0  0
    9.8207   47.8441   53.4340 C   0  0  0  0  0  0  0  0  0  0  0  0
   10.4598   46.6224   54.0864 C   0  0  0  0  0  0  0  0  0  0  0  0
    9.4183   45.5980   54.5239 C   0  0  0  0  0  0  0  0  0  0  0  0
    8.4938   45.2062   53.3731 C   0  0  0  0  0  0  0  0  0  0  0  0
    3.6555   47.5463   51.6851 C   0  0  0  0  0  0  0  0  0  0  0  0
    3.4735   48.7345   51.0405 N   0  0  0  0  0  0  0  0  0  0  0  0
    2.2671   48.6666   50.3981 C   0  0  0  0  0  0  0  0  0  0  0  0
    1.6747   47.5085   50.5961 N   0  0  0  0  0  0  0  0  0  0  0  0
    2.5332   46.8039   51.3996 C   0  0  0  0  0  0  0  0  0  0  0  0
    2.3365   45.5605   51.8592 N   0  0  0  0  0  0  0  0  0  0  0  0
    5.1566   42.6604   53.6330 C   0  0  0  0  0  0  0  0  0  0  0  0
    6.0743   39.3834   53.3005 H   0  0  0  0  0  0  0  0  0  0  0  0
    3.7460   39.2604   52.4110 H   0  0  0  0  0  0  0  0  0  0  0  0
    2.3351   41.3032   52.3102 H   0  0  0  0  0  0  0  0  0  0  0  0
    2.1973   43.7797   53.5626 H   0  0  0  0  0  0  0  0  0  0  0  0
    7.2026   47.7778   54.2570 H   0  0  0  0  0  0  0  0  0  0  0  0
    6.2243   46.2573   54.1202 H   0  0  0  0  0  0  0  0  0  0  0  0
    7.3299   46.0511   51.7875 H   0  0  0  0  0  0  0  0  0  0  0  0
    9.5025   47.0249   51.4740 H   0  0  0  0  0  0  0  0  0  0  0  0
    8.3625   48.3602   51.9661 H   0  0  0  0  0  0  0  0  0  0  0  0
   10.6156   48.4965   53.0437 H   0  0  0  0  0  0  0  0  0  0  0  0
    9.2213   48.3649   54.1952 H   0  0  0  0  0  0  0  0  0  0  0  0
   11.1413   46.1497   53.3638 H   0  0  0  0  0  0  0  0  0  0  0  0
   11.0017   46.9599   54.9822 H   0  0  0  0  0  0  0  0  0  0  0  0
    9.9348   44.6979   54.8886 H   0  0  0  0  0  0  0  0  0  0  0  0
    8.8054   46.0496   55.3178 H   0  0  0  0  0  0  0  0  0  0  0  0
    9.0824   44.6614   52.6204 H   0  0  0  0  0  0  0  0  0  0  0  0
    7.6896   44.5846   53.7939 H   0  0  0  0  0  0  0  0  0  0  0  0
    4.1154   49.5165   51.0425 H   0  0  0  0  0  0  0  0  0  0  0  0
    1.8444   49.4804   49.7906 H   0  0  0  0  0  0  0  0  0  0  0  0
    5.5672   43.6174   53.9873 H   0  0  0  0  0  0  0  0  0  0  0  0
  1  2  1  0
  2  3  2  0
  3  4  1  0
  4  5  2  0
  5  6  1  0
  6  7  1  0
  7  8  1  0
  8  9  2  0
  9 10  1  0
 10 11  1  0
 11 12  1  0
 12 13  1  0
 13 14  1  0
 14 15  1  0
 15 16  1  0
 16 17  1  0
 17 18  1  0
 10 19  2  0
 19 20  1  0
 20 21  1  0
 21 22  2  0
 22 23  1  0
 23 24  2  0
  6 25  2  0
 25  2  1  0
 24  8  1  0
 18 13  1  0
 23 19  1  0
  3 26  1  0
  4 27  1  0
  5 28  1  0
  7 29  1  0
 12 30  1  0
 12 31  1  0
 13 32  1  0
 14 33  1  0
 14 34  1  0
 15 35  1  0
 15 36  1  0
 16 37  1  0
 16 38  1  0
 17 39  1  0
 17 40  1  0
 18 41  1  0
 18 42  1  0
 20 43  1  0
 21 44  1  0
 25 45  1  0
M  END
>  <meeko>  (41) 
{"is_sidechain": false}

>  <CID>  (41) 
5329552

>  <pose_index>  (41) 
9

>  <docking_score>  (41) 
-8.365

>  <rmsd_to_best_selected>  (41) 
1.499438412553356

>  <MWT>  (41) 
402.29599999999976

>  <TPSA>  (41) 
75.72

>  <logP>  (41) 
4.818100000000003

>  <HBD>  (41) 
2

>  <HBA>  (41) 
5

>  <SMILES>  (41) 
[H]c1c([H])c(Br)c([H])c(N([H])c2nc(OC([H])([H])C3([H])C([H])([H])C([H])([H])C([H])([H])C([H])([H])C3([H])[H])c3c(n2)nc([H])n3[H])c1[H]

$$$$
5329558_pose1
     RDKit          3D

 45 48  0  0  0  0  0  0  0  0999 V2000
    7.9800   43.0930   48.4860 F   0  0  0  0  0  0  0  0  0  0  0  0
    6.9240   43.1180   49.3110 C   0  0  0  0  0  0  0  0  0  0  0  0
    6.5020   44.3250   49.8480 C   0  0  0  0  0  0  0  0  0  0  0  0
    5.4010   44.3470   50.7070 C   0  0  0  0  0  0  0  0  0  0  0  0
    4.7070   43.1680   51.0390 C   0  0  0  0  0  0  0  0  0  0  0  0
    3.6150   43.2620   51.9080 N   0  0  0  0  0  0  0  0  0  0  0  0
    3.3660   43.9700   53.0840 C   0  0  0  0  0  0  0  0  0  0  0  0
    4.4720   44.5450   53.6110 N   0  0  0  0  0  0  0  0  0  0  0  0
    4.3720   45.2580   54.7490 C   0  0  0  0  0  0  0  0  0  0  0  0
    5.4570   45.8890   55.3120 O   0  0  0  0  0  0  0  0  0  0  0  0
    5.9970   46.9780   54.5600 C   0  0  0  0  0  0  0  0  0  0  0  0
    7.3270   46.5740   53.9000 C   0  0  0  0  0  0  0  0  0  0  0  0
    7.2920   46.8990   52.3990 C   0  0  0  0  0  0  0  0  0  0  0  0
    8.6060   46.5410   51.7070 C   0  0  0  0  0  0  0  0  0  0  0  0
    9.7960   47.2140   52.3820 C   0  0  0  0  0  0  0  0  0  0  0  0
    9.8460   46.8920   53.8720 C   0  0  0  0  0  0  0  0  0  0  0  0
    8.5360   47.2460   54.5720 C   0  0  0  0  0  0  0  0  0  0  0  0
    3.1330   45.3810   55.3190 C   0  0  0  0  0  0  0  0  0  0  0  0
    2.6330   46.0100   56.4200 N   0  0  0  0  0  0  0  0  0  0  0  0
    1.2880   45.7540   56.4580 C   0  0  0  0  0  0  0  0  0  0  0  0
    0.9070   45.0040   55.4460 N   0  0  0  0  0  0  0  0  0  0  0  0
    2.0510   44.7680   54.7290 C   0  0  0  0  0  0  0  0  0  0  0  0
    2.1370   44.0470   53.6030 N   0  0  0  0  0  0  0  0  0  0  0  0
    5.1610   41.9660   50.4800 C   0  0  0  0  0  0  0  0  0  0  0  0
    6.2630   41.9390   49.6190 C   0  0  0  0  0  0  0  0  0  0  0  0
    7.0301   45.2574   49.5994 H   0  0  0  0  0  0  0  0  0  0  0  0
    5.0692   45.3054   51.1330 H   0  0  0  0  0  0  0  0  0  0  0  0
    2.8050   42.7010   51.6890 H   0  0  0  0  0  0  0  0  0  0  0  0
    5.2794   47.2687   53.7786 H   0  0  0  0  0  0  0  0  0  0  0  0
    6.1811   47.8221   55.2408 H   0  0  0  0  0  0  0  0  0  0  0  0
    7.4472   45.4886   54.0325 H   0  0  0  0  0  0  0  0  0  0  0  0
    6.4766   46.3283   51.9306 H   0  0  0  0  0  0  0  0  0  0  0  0
    7.1330   47.9818   52.2886 H   0  0  0  0  0  0  0  0  0  0  0  0
    8.7439   45.4503   51.7446 H   0  0  0  0  0  0  0  0  0  0  0  0
    8.5549   46.8943   50.6665 H   0  0  0  0  0  0  0  0  0  0  0  0
   10.7235   46.8602   51.9081 H   0  0  0  0  0  0  0  0  0  0  0  0
    9.6893   48.3027   52.2665 H   0  0  0  0  0  0  0  0  0  0  0  0
   10.0376   45.8161   53.9977 H   0  0  0  0  0  0  0  0  0  0  0  0
   10.6491   47.4918   54.3251 H   0  0  0  0  0  0  0  0  0  0  0  0
    8.5912   46.9135   55.6191 H   0  0  0  0  0  0  0  0  0  0  0  0
    8.3992   48.3356   54.5086 H   0  0  0  0  0  0  0  0  0  0  0  0
    3.1610   46.5610   57.0830 H   0  0  0  0  0  0  0  0  0  0  0  0
    0.6097   46.1292   57.2385 H   0  0  0  0  0  0  0  0  0  0  0  0
    4.6416   41.0271   50.7225 H   0  0  0  0  0  0  0  0  0  0  0  0
    6.6038   40.9861   49.1880 H   0  0  0  0  0  0  0  0  0  0  0  0
  1  2  1  0
  2  3  2  0
  3  4  1  0
  4  5  2  0
  5  6  1  0
  6  7  1  0
  7  8  2  0
  8  9  1  0
  9 10  1  0
 10 11  1  0
 11 12  1  0
 12 13  1  0
 13 14  1  0
 14 15  1  0
 15 16  1  0
 16 17  1  0
  9 18  2  0
 18 19  1  0
 19 20  1  0
 20 21  2  0
 21 22  1  0
 22 23  2  0
  5 24  1  0
 24 25  2  0
 25  2  1  0
 23  7  1  0
 17 12  1  0
 22 18  1  0
  3 26  1  0
  4 27  1  0
  6 28  1  0
 11 29  1  0
 11 30  1  0
 12 31  1  0
 13 32  1  0
 13 33  1  0
 14 34  1  0
 14 35  1  0
 15 36  1  0
 15 37  1  0
 16 38  1  0
 16 39  1  0
 17 40  1  0
 17 41  1  0
 19 42  1  0
 20 43  1  0
 24 44  1  0
 25 45  1  0
M  END
>  <meeko>  (42) 
{"is_sidechain": false}

>  <CID>  (42) 
5329558

>  <pose_index>  (42) 
1

>  <docking_score>  (42) 
-9.605

>  <rmsd_to_best_selected>  (42) 
0.0

>  <MWT>  (42) 
341.3899999999997

>  <TPSA>  (42) 
75.72

>  <logP>  (42) 
4.194700000000002

>  <HBD>  (42) 
2

>  <HBA>  (42) 
5

>  <SMILES>  (42) 
[H]c1c([H])c(N([H])c2nc(OC([H])([H])C3([H])C([H])([H])C([H])([H])C([H])([H])C([H])([H])C3([H])[H])c3c(n2)nc([H])n3[H])c([H])c([H])c1F

$$$$
5329558_pose2
     RDKit          3D

 45 48  0  0  0  0  0  0  0  0999 V2000
    7.7176   43.5212   48.0698 F   0  0  0  0  0  0  0  0  0  0  0  0
    6.7156   43.5721   48.9583 C   0  0  0  0  0  0  0  0  0  0  0  0
    6.4552   42.4724   49.7610 C   0  0  0  0  0  0  0  0  0  0  0  0
    5.4089   42.5301   50.6851 C   0  0  0  0  0  0  0  0  0  0  0  0
    4.6129   43.6829   50.8209 C   0  0  0  0  0  0  0  0  0  0  0  0
    3.5810   43.6695   51.7652 N   0  0  0  0  0  0  0  0  0  0  0  0
    3.4193   44.2209   53.0368 C   0  0  0  0  0  0  0  0  0  0  0  0
    4.1900   45.3112   53.2536 N   0  0  0  0  0  0  0  0  0  0  0  0
    4.1315   45.9397   54.4425 C   0  0  0  0  0  0  0  0  0  0  0  0
    4.8705   47.0695   54.7078 O   0  0  0  0  0  0  0  0  0  0  0  0
    5.7533   47.4887   53.6636 C   0  0  0  0  0  0  0  0  0  0  0  0
    7.1022   46.7571   53.7687 C   0  0  0  0  0  0  0  0  0  0  0  0
    7.5026   46.1873   52.3994 C   0  0  0  0  0  0  0  0  0  0  0  0
    8.8537   45.4768   52.4508 C   0  0  0  0  0  0  0  0  0  0  0  0
    9.9452   46.3883   53.0009 C   0  0  0  0  0  0  0  0  0  0  0  0
    9.5629   46.9539   54.3645 C   0  0  0  0  0  0  0  0  0  0  0  0
    8.2121   47.6660   54.3234 C   0  0  0  0  0  0  0  0  0  0  0  0
    3.2678   45.4469   55.3836 C   0  0  0  0  0  0  0  0  0  0  0  0
    2.9187   45.7978   56.6551 N   0  0  0  0  0  0  0  0  0  0  0  0
    1.9835   44.8942   57.0831 C   0  0  0  0  0  0  0  0  0  0  0  0
    1.7187   43.9944   56.1597 N   0  0  0  0  0  0  0  0  0  0  0  0
    2.5132   44.3324   55.0950 C   0  0  0  0  0  0  0  0  0  0  0  0
    2.5688   43.6900   53.9208 N   0  0  0  0  0  0  0  0  0  0  0  0
    4.9032   44.7752   49.9932 C   0  0  0  0  0  0  0  0  0  0  0  0
    5.9498   44.7234   49.0663 C   0  0  0  0  0  0  0  0  0  0  0  0
    7.0668   41.5625   49.6713 H   0  0  0  0  0  0  0  0  0  0  0  0
    5.2028   41.6559   51.3201 H   0  0  0  0  0  0  0  0  0  0  0  0
    2.7518   43.1448   51.5303 H   0  0  0  0  0  0  0  0  0  0  0  0
    5.2944   47.2626   52.6898 H   0  0  0  0  0  0  0  0  0  0  0  0
    5.9281   48.5704   53.7600 H   0  0  0  0  0  0  0  0  0  0  0  0
    6.9770   45.9289   54.4818 H   0  0  0  0  0  0  0  0  0  0  0  0
    6.7353   45.4690   52.0750 H   0  0  0  0  0  0  0  0  0  0  0  0
    7.5853   47.0259   51.6924 H   0  0  0  0  0  0  0  0  0  0  0  0
    8.7675   44.5917   53.0983 H   0  0  0  0  0  0  0  0  0  0  0  0
    9.1302   45.1876   51.4262 H   0  0  0  0  0  0  0  0  0  0  0  0
   10.8764   45.8115   53.1011 H   0  0  0  0  0  0  0  0  0  0  0  0
   10.0792   47.2280   52.3031 H   0  0  0  0  0  0  0  0  0  0  0  0
    9.5088   46.1289   55.0900 H   0  0  0  0  0  0  0  0  0  0  0  0
   10.3281   47.6878   54.6575 H   0  0  0  0  0  0  0  0  0  0  0  0
    7.9418   47.9753   55.3439 H   0  0  0  0  0  0  0  0  0  0  0  0
    8.3052   48.5364   53.6573 H   0  0  0  0  0  0  0  0  0  0  0  0
    3.2853   46.5809   57.1788 H   0  0  0  0  0  0  0  0  0  0  0  0
    1.5116   44.9173   58.0765 H   0  0  0  0  0  0  0  0  0  0  0  0
    4.2975   45.6899   50.0735 H   0  0  0  0  0  0  0  0  0  0  0  0
    6.1643   45.5918   48.4260 H   0  0  0  0  0  0  0  0  0  0  0  0
  1  2  1  0
  2  3  2  0
  3  4  1  0
  4  5  2  0
  5  6  1  0
  6  7  1  0
  7  8  2  0
  8  9  1  0
  9 10  1  0
 10 11  1  0
 11 12  1  0
 12 13  1  0
 13 14  1  0
 14 15  1  0
 15 16  1  0
 16 17  1  0
  9 18  2  0
 18 19  1  0
 19 20  1  0
 20 21  2  0
 21 22  1  0
 22 23  2  0
  5 24  1  0
 24 25  2  0
 25  2  1  0
 23  7  1  0
 17 12  1  0
 22 18  1  0
  3 26  1  0
  4 27  1  0
  6 28  1  0
 11 29  1  0
 11 30  1  0
 12 31  1  0
 13 32  1  0
 13 33  1  0
 14 34  1  0
 14 35  1  0
 15 36  1  0
 15 37  1  0
 16 38  1  0
 16 39  1  0
 17 40  1  0
 17 41  1  0
 19 42  1  0
 20 43  1  0
 24 44  1  0
 25 45  1  0
M  END
>  <meeko>  (43) 
{"is_sidechain": false}

>  <CID>  (43) 
5329558

>  <pose_index>  (43) 
2

>  <docking_score>  (43) 
-9.548

>  <rmsd_to_best_selected>  (43) 
1.0379908427223195

>  <MWT>  (43) 
341.3899999999997

>  <TPSA>  (43) 
75.72

>  <logP>  (43) 
4.194700000000002

>  <HBD>  (43) 
2

>  <HBA>  (43) 
5

>  <SMILES>  (43) 
[H]c1c([H])c(N([H])c2nc(OC([H])([H])C3([H])C([H])([H])C([H])([H])C([H])([H])C([H])([H])C3([H])[H])c3c(n2)nc([H])n3[H])c([H])c([H])c1F

$$$$
5329558_pose3
     RDKit          3D

 45 48  0  0  0  0  0  0  0  0999 V2000
    7.8836   44.1125   48.2014 F   0  0  0  0  0  0  0  0  0  0  0  0
    6.8762   43.9996   49.0772 C   0  0  0  0  0  0  0  0  0  0  0  0
    5.7459   44.7885   48.9267 C   0  0  0  0  0  0  0  0  0  0  0  0
    4.6969   44.6672   49.8426 C   0  0  0  0  0  0  0  0  0  0  0  0
    4.7628   43.7596   50.9161 C   0  0  0  0  0  0  0  0  0  0  0  0
    3.6783   43.6925   51.7972 N   0  0  0  0  0  0  0  0  0  0  0  0
    3.3710   44.3096   53.0106 C   0  0  0  0  0  0  0  0  0  0  0  0
    4.3543   45.1196   53.4670 N   0  0  0  0  0  0  0  0  0  0  0  0
    4.1865   45.7755   54.6308 C   0  0  0  0  0  0  0  0  0  0  0  0
    5.1405   46.6337   55.1281 O   0  0  0  0  0  0  0  0  0  0  0  0
    6.4672   46.1066   55.2000 C   0  0  0  0  0  0  0  0  0  0  0  0
    7.2516   46.4368   53.9178 C   0  0  0  0  0  0  0  0  0  0  0  0
    8.3505   47.4661   54.2216 C   0  0  0  0  0  0  0  0  0  0  0  0
    9.1760   47.8025   52.9818 C   0  0  0  0  0  0  0  0  0  0  0  0
    9.7643   46.5491   52.3437 C   0  0  0  0  0  0  0  0  0  0  0  0
    8.6809   45.5228   52.0296 C   0  0  0  0  0  0  0  0  0  0  0  0
    7.8504   45.1808   53.2647 C   0  0  0  0  0  0  0  0  0  0  0  0
    3.0037   45.6015   55.2980 C   0  0  0  0  0  0  0  0  0  0  0  0
    2.4637   46.0838   56.4537 N   0  0  0  0  0  0  0  0  0  0  0  0
    1.2221   45.5230   56.5873 C   0  0  0  0  0  0  0  0  0  0  0  0
    0.9421   44.7179   55.5853 N   0  0  0  0  0  0  0  0  0  0  0  0
    2.0461   44.7610   54.7744 C   0  0  0  0  0  0  0  0  0  0  0  0
    2.2033   44.0935   53.6245 N   0  0  0  0  0  0  0  0  0  0  0  0
    5.9201   42.9796   51.0398 C   0  0  0  0  0  0  0  0  0  0  0  0
    6.9733   43.0962   50.1245 C   0  0  0  0  0  0  0  0  0  0  0  0
    5.6752   45.5036   48.0938 H   0  0  0  0  0  0  0  0  0  0  0  0
    3.8012   45.2942   49.7218 H   0  0  0  0  0  0  0  0  0  0  0  0
    2.9295   43.0602   51.5556 H   0  0  0  0  0  0  0  0  0  0  0  0
    6.9851   46.5478   56.0643 H   0  0  0  0  0  0  0  0  0  0  0  0
    6.4090   45.0135   55.3085 H   0  0  0  0  0  0  0  0  0  0  0  0
    6.5423   46.8676   53.1957 H   0  0  0  0  0  0  0  0  0  0  0  0
    7.8806   48.3874   54.5964 H   0  0  0  0  0  0  0  0  0  0  0  0
    9.0262   47.0309   54.9726 H   0  0  0  0  0  0  0  0  0  0  0  0
    8.5297   48.3070   52.2484 H   0  0  0  0  0  0  0  0  0  0  0  0
   10.0065   48.4558   53.2877 H   0  0  0  0  0  0  0  0  0  0  0  0
   10.2740   46.8286   51.4098 H   0  0  0  0  0  0  0  0  0  0  0  0
   10.4719   46.0983   53.0551 H   0  0  0  0  0  0  0  0  0  0  0  0
    8.0157   45.9326   51.2552 H   0  0  0  0  0  0  0  0  0  0  0  0
    9.1718   44.6022   51.6812 H   0  0  0  0  0  0  0  0  0  0  0  0
    7.0313   44.5092   52.9679 H   0  0  0  0  0  0  0  0  0  0  0  0
    8.5128   44.6977   53.9981 H   0  0  0  0  0  0  0  0  0  0  0  0
    2.9035   46.7348   57.0905 H   0  0  0  0  0  0  0  0  0  0  0  0
    0.5421   45.7213   57.4289 H   0  0  0  0  0  0  0  0  0  0  0  0
    6.0027   42.2631   51.8703 H   0  0  0  0  0  0  0  0  0  0  0  0
    7.8735   42.4739   50.2358 H   0  0  0  0  0  0  0  0  0  0  0  0
  1  2  1  0
  2  3  2  0
  3  4  1  0
  4  5  2  0
  5  6  1  0
  6  7  1  0
  7  8  2  0
  8  9  1  0
  9 10  1  0
 10 11  1  0
 11 12  1  0
 12 13  1  0
 13 14  1  0
 14 15  1  0
 15 16  1  0
 16 17  1  0
  9 18  2  0
 18 19  1  0
 19 20  1  0
 20 21  2  0
 21 22  1  0
 22 23  2  0
  5 24  1  0
 24 25  2  0
 25  2  1  0
 23  7  1  0
 17 12  1  0
 22 18  1  0
  3 26  1  0
  4 27  1  0
  6 28  1  0
 11 29  1  0
 11 30  1  0
 12 31  1  0
 13 32  1  0
 13 33  1  0
 14 34  1  0
 14 35  1  0
 15 36  1  0
 15 37  1  0
 16 38  1  0
 16 39  1  0
 17 40  1  0
 17 41  1  0
 19 42  1  0
 20 43  1  0
 24 44  1  0
 25 45  1  0
M  END
>  <meeko>  (44) 
{"is_sidechain": false}

>  <CID>  (44) 
5329558

>  <pose_index>  (44) 
3

>  <docking_score>  (44) 
-9.495

>  <rmsd_to_best_selected>  (44) 
1.4576360967617512

>  <MWT>  (44) 
341.3899999999997

>  <TPSA>  (44) 
75.72

>  <logP>  (44) 
4.194700000000002

>  <HBD>  (44) 
2

>  <HBA>  (44) 
5

>  <SMILES>  (44) 
[H]c1c([H])c(N([H])c2nc(OC([H])([H])C3([H])C([H])([H])C([H])([H])C([H])([H])C([H])([H])C3([H])[H])c3c(n2)nc([H])n3[H])c([H])c([H])c1F

$$$$
5329558_pose6
     RDKit          3D

 45 48  0  0  0  0  0  0  0  0999 V2000
    7.5037   43.3972   47.6159 F   0  0  0  0  0  0  0  0  0  0  0  0
    6.6106   43.7089   48.5653 C   0  0  0  0  0  0  0  0  0  0  0  0
    5.5084   42.8921   48.7638 C   0  0  0  0  0  0  0  0  0  0  0  0
    4.5799   43.2213   49.7548 C   0  0  0  0  0  0  0  0  0  0  0  0
    4.7410   44.3644   50.5601 C   0  0  0  0  0  0  0  0  0  0  0  0
    3.7722   44.6349   51.5324 N   0  0  0  0  0  0  0  0  0  0  0  0
    3.7341   44.5305   52.9225 C   0  0  0  0  0  0  0  0  0  0  0  0
    4.8944   44.8838   53.5216 N   0  0  0  0  0  0  0  0  0  0  0  0
    4.9925   44.8270   54.8629 C   0  0  0  0  0  0  0  0  0  0  0  0
    6.1378   45.2026   55.5267 O   0  0  0  0  0  0  0  0  0  0  0  0
    6.3780   46.6102   55.5950 C   0  0  0  0  0  0  0  0  0  0  0  0
    7.4388   47.0292   54.5620 C   0  0  0  0  0  0  0  0  0  0  0  0
    8.3643   45.8442   54.2461 C   0  0  0  0  0  0  0  0  0  0  0  0
    9.4166   46.2052   53.2004 C   0  0  0  0  0  0  0  0  0  0  0  0
    8.7780   46.7521   51.9286 C   0  0  0  0  0  0  0  0  0  0  0  0
    7.8635   47.9353   52.2284 C   0  0  0  0  0  0  0  0  0  0  0  0
    6.8073   47.5827   53.2743 C   0  0  0  0  0  0  0  0  0  0  0  0
    3.8903   44.4225   55.5682 C   0  0  0  0  0  0  0  0  0  0  0  0
    3.5950   44.2563   56.8891 N   0  0  0  0  0  0  0  0  0  0  0  0
    2.2999   43.8171   56.9624 C   0  0  0  0  0  0  0  0  0  0  0  0
    1.7580   43.6992   55.7689 N   0  0  0  0  0  0  0  0  0  0  0  0
    2.7424   44.0769   54.8934 C   0  0  0  0  0  0  0  0  0  0  0  0
    2.6329   44.1179   53.5584 N   0  0  0  0  0  0  0  0  0  0  0  0
    5.8661   45.1687   50.3320 C   0  0  0  0  0  0  0  0  0  0  0  0
    6.7988   44.8435   49.3400 C   0  0  0  0  0  0  0  0  0  0  0  0
    5.3659   41.9927   48.1466 H   0  0  0  0  0  0  0  0  0  0  0  0
    3.7044   42.5733   49.9089 H   0  0  0  0  0  0  0  0  0  0  0  0
    2.8763   44.9665   51.2066 H   0  0  0  0  0  0  0  0  0  0  0  0
    5.4404   47.1473   55.3888 H   0  0  0  0  0  0  0  0  0  0  0  0
    6.7453   46.8589   56.6016 H   0  0  0  0  0  0  0  0  0  0  0  0
    8.0315   47.8431   55.0050 H   0  0  0  0  0  0  0  0  0  0  0  0
    8.8736   45.5346   55.1706 H   0  0  0  0  0  0  0  0  0  0  0  0
    7.7472   45.0288   53.8406 H   0  0  0  0  0  0  0  0  0  0  0  0
   10.0890   46.9684   53.6191 H   0  0  0  0  0  0  0  0  0  0  0  0
    9.9725   45.2920   52.9415 H   0  0  0  0  0  0  0  0  0  0  0  0
    9.5723   47.0790   51.2415 H   0  0  0  0  0  0  0  0  0  0  0  0
    8.1727   45.9536   51.4747 H   0  0  0  0  0  0  0  0  0  0  0  0
    8.4728   48.7704   52.6045 H   0  0  0  0  0  0  0  0  0  0  0  0
    7.3457   48.2126   51.2983 H   0  0  0  0  0  0  0  0  0  0  0  0
    6.2340   48.4886   53.5203 H   0  0  0  0  0  0  0  0  0  0  0  0
    6.1557   46.8037   52.8518 H   0  0  0  0  0  0  0  0  0  0  0  0
    4.2192   44.4255   57.6664 H   0  0  0  0  0  0  0  0  0  0  0  0
    1.7768   43.5908   57.9033 H   0  0  0  0  0  0  0  0  0  0  0  0
    6.0188   46.0708   50.9427 H   0  0  0  0  0  0  0  0  0  0  0  0
    7.6771   45.4851   49.1758 H   0  0  0  0  0  0  0  0  0  0  0  0
  1  2  1  0
  2  3  2  0
  3  4  1  0
  4  5  2  0
  5  6  1  0
  6  7  1  0
  7  8  2  0
  8  9  1  0
  9 10  1  0
 10 11  1  0
 11 12  1  0
 12 13  1  0
 13 14  1  0
 14 15  1  0
 15 16  1  0
 16 17  1  0
  9 18  2  0
 18 19  1  0
 19 20  1  0
 20 21  2  0
 21 22  1  0
 22 23  2  0
  5 24  1  0
 24 25  2  0
 25  2  1  0
 23  7  1  0
 17 12  1  0
 22 18  1  0
  3 26  1  0
  4 27  1  0
  6 28  1  0
 11 29  1  0
 11 30  1  0
 12 31  1  0
 13 32  1  0
 13 33  1  0
 14 34  1  0
 14 35  1  0
 15 36  1  0
 15 37  1  0
 16 38  1  0
 16 39  1  0
 17 40  1  0
 17 41  1  0
 19 42  1  0
 20 43  1  0
 24 44  1  0
 25 45  1  0
M  END
>  <meeko>  (45) 
{"is_sidechain": false}

>  <CID>  (45) 
5329558

>  <pose_index>  (45) 
6

>  <docking_score>  (45) 
-9.069

>  <rmsd_to_best_selected>  (45) 
1.255077191265076

>  <MWT>  (45) 
341.3899999999997

>  <TPSA>  (45) 
75.72

>  <logP>  (45) 
4.194700000000002

>  <HBD>  (45) 
2

>  <HBA>  (45) 
5

>  <SMILES>  (45) 
[H]c1c([H])c(N([H])c2nc(OC([H])([H])C3([H])C([H])([H])C([H])([H])C([H])([H])C([H])([H])C3([H])[H])c3c(n2)nc([H])n3[H])c([H])c([H])c1F

$$$$
5329558_pose10
     RDKit          3D

 45 48  0  0  0  0  0  0  0  0999 V2000
    7.4895   44.4401   47.4720 F   0  0  0  0  0  0  0  0  0  0  0  0
    6.8472   44.0440   48.5798 C   0  0  0  0  0  0  0  0  0  0  0  0
    6.8735   44.8456   49.7108 C   0  0  0  0  0  0  0  0  0  0  0  0
    6.2020   44.4282   50.8633 C   0  0  0  0  0  0  0  0  0  0  0  0
    5.4973   43.2103   50.9003 C   0  0  0  0  0  0  0  0  0  0  0  0
    4.8508   42.8540   52.0889 N   0  0  0  0  0  0  0  0  0  0  0  0
    4.2870   43.5743   53.1426 C   0  0  0  0  0  0  0  0  0  0  0  0
    5.1957   44.2575   53.8751 N   0  0  0  0  0  0  0  0  0  0  0  0
    4.7846   44.9942   54.9244 C   0  0  0  0  0  0  0  0  0  0  0  0
    5.6608   45.7319   55.6859 O   0  0  0  0  0  0  0  0  0  0  0  0
    5.7988   47.1054   55.3125 C   0  0  0  0  0  0  0  0  0  0  0  0
    7.0680   47.3105   54.4662 C   0  0  0  0  0  0  0  0  0  0  0  0
    8.0487   46.1513   54.6957 C   0  0  0  0  0  0  0  0  0  0  0  0
    9.3134   46.2978   53.8524 C   0  0  0  0  0  0  0  0  0  0  0  0
    8.9840   46.4473   52.3706 C   0  0  0  0  0  0  0  0  0  0  0  0
    8.0168   47.6019   52.1299 C   0  0  0  0  0  0  0  0  0  0  0  0
    6.7494   47.4629   52.9701 C   0  0  0  0  0  0  0  0  0  0  0  0
    3.4422   45.0279   55.1943 C   0  0  0  0  0  0  0  0  0  0  0  0
    2.6568   45.6468   56.1228 N   0  0  0  0  0  0  0  0  0  0  0  0
    1.3635   45.2781   55.8691 C   0  0  0  0  0  0  0  0  0  0  0  0
    1.2816   44.4674   54.8354 N   0  0  0  0  0  0  0  0  0  0  0  0
    2.5732   44.3081   54.4068 C   0  0  0  0  0  0  0  0  0  0  0  0
    2.9690   43.5619   53.3668 N   0  0  0  0  0  0  0  0  0  0  0  0
    5.4927   42.4243   49.7409 C   0  0  0  0  0  0  0  0  0  0  0  0
    6.1630   42.8383   48.5837 C   0  0  0  0  0  0  0  0  0  0  0  0
    7.4179   45.8014   49.7012 H   0  0  0  0  0  0  0  0  0  0  0  0
    6.2246   45.0647   51.7601 H   0  0  0  0  0  0  0  0  0  0  0  0
    4.7591   41.8682   52.2835 H   0  0  0  0  0  0  0  0  0  0  0  0
    4.9197   47.4109   54.7261 H   0  0  0  0  0  0  0  0  0  0  0  0
    5.8777   47.7152   56.2245 H   0  0  0  0  0  0  0  0  0  0  0  0
    7.5365   48.2506   54.7926 H   0  0  0  0  0  0  0  0  0  0  0  0
    8.3309   46.1298   55.7587 H   0  0  0  0  0  0  0  0  0  0  0  0
    7.5479   45.2180   54.3987 H   0  0  0  0  0  0  0  0  0  0  0  0
    9.8650   47.1886   54.1875 H   0  0  0  0  0  0  0  0  0  0  0  0
    9.9205   45.3895   53.9807 H   0  0  0  0  0  0  0  0  0  0  0  0
    9.9138   46.6373   51.8145 H   0  0  0  0  0  0  0  0  0  0  0  0
    8.5066   45.5180   52.0263 H   0  0  0  0  0  0  0  0  0  0  0  0
    8.5166   48.5459   52.3925 H   0  0  0  0  0  0  0  0  0  0  0  0
    7.7272   47.5905   51.0688 H   0  0  0  0  0  0  0  0  0  0  0  0
    6.1284   48.3597   52.8282 H   0  0  0  0  0  0  0  0  0  0  0  0
    6.2191   46.5574   52.6403 H   0  0  0  0  0  0  0  0  0  0  0  0
    2.9761   46.2608   56.8592 H   0  0  0  0  0  0  0  0  0  0  0  0
    0.4981   45.6179   56.4571 H   0  0  0  0  0  0  0  0  0  0  0  0
    4.9533   41.4656   49.7397 H   0  0  0  0  0  0  0  0  0  0  0  0
    6.1468   42.2095   47.6813 H   0  0  0  0  0  0  0  0  0  0  0  0
  1  2  1  0
  2  3  2  0
  3  4  1  0
  4  5  2  0
  5  6  1  0
  6  7  1  0
  7  8  2  0
  8  9  1  0
  9 10  1  0
 10 11  1  0
 11 12  1  0
 12 13  1  0
 13 14  1  0
 14 15  1  0
 15 16  1  0
 16 17  1  0
  9 18  2  0
 18 19  1  0
 19 20  1  0
 20 21  2  0
 21 22  1  0
 22 23  2  0
  5 24  1  0
 24 25  2  0
 25  2  1  0
 23  7  1  0
 17 12  1  0
 22 18  1  0
  3 26  1  0
  4 27  1  0
  6 28  1  0
 11 29  1  0
 11 30  1  0
 12 31  1  0
 13 32  1  0
 13 33  1  0
 14 34  1  0
 14 35  1  0
 15 36  1  0
 15 37  1  0
 16 38  1  0
 16 39  1  0
 17 40  1  0
 17 41  1  0
 19 42  1  0
 20 43  1  0
 24 44  1  0
 25 45  1  0
M  END
>  <meeko>  (46) 
{"is_sidechain": false}

>  <CID>  (46) 
5329558

>  <pose_index>  (46) 
10

>  <docking_score>  (46) 
-8.974

>  <rmsd_to_best_selected>  (46) 
1.2187193615583791

>  <MWT>  (46) 
341.3899999999997

>  <TPSA>  (46) 
75.72

>  <logP>  (46) 
4.194700000000002

>  <HBD>  (46) 
2

>  <HBA>  (46) 
5

>  <SMILES>  (46) 
[H]c1c([H])c(N([H])c2nc(OC([H])([H])C3([H])C([H])([H])C([H])([H])C([H])([H])C([H])([H])C3([H])[H])c3c(n2)nc([H])n3[H])c([H])c([H])c1F

$$$$
5329559_pose3
     RDKit          3D

 45 48  0  0  0  0  0  0  0  0999 V2000
   -0.4255   44.8760   53.7821 F   0  0  0  0  0  0  0  0  0  0  0  0
    0.8311   45.2187   54.1055 C   0  0  0  0  0  0  0  0  0  0  0  0
    1.8156   44.2413   54.0945 C   0  0  0  0  0  0  0  0  0  0  0  0
    3.1320   44.5777   54.4291 C   0  0  0  0  0  0  0  0  0  0  0  0
    3.4829   45.8887   54.7743 C   0  0  0  0  0  0  0  0  0  0  0  0
    4.7824   46.2850   55.1087 N   0  0  0  0  0  0  0  0  0  0  0  0
    5.9903   46.3924   54.4159 C   0  0  0  0  0  0  0  0  0  0  0  0
    6.4324   45.3939   53.6232 N   0  0  0  0  0  0  0  0  0  0  0  0
    7.5987   45.5371   52.9650 C   0  0  0  0  0  0  0  0  0  0  0  0
    8.0858   44.5682   52.1169 O   0  0  0  0  0  0  0  0  0  0  0  0
    7.4276   44.4667   50.8531 C   0  0  0  0  0  0  0  0  0  0  0  0
    6.5776   43.1880   50.7801 C   0  0  0  0  0  0  0  0  0  0  0  0
    5.1495   43.4760   51.2696 C   0  0  0  0  0  0  0  0  0  0  0  0
    4.2583   42.2400   51.1928 C   0  0  0  0  0  0  0  0  0  0  0  0
    4.2428   41.6461   49.7882 C   0  0  0  0  0  0  0  0  0  0  0  0
    5.6535   41.3437   49.2968 C   0  0  0  0  0  0  0  0  0  0  0  0
    6.5533   42.5762   49.3689 C   0  0  0  0  0  0  0  0  0  0  0  0
    8.2826   46.7123   53.1222 C   0  0  0  0  0  0  0  0  0  0  0  0
    9.4461   47.2287   52.6318 N   0  0  0  0  0  0  0  0  0  0  0  0
    9.5959   48.4759   53.1753 C   0  0  0  0  0  0  0  0  0  0  0  0
    8.5986   48.7809   53.9784 N   0  0  0  0  0  0  0  0  0  0  0  0
    7.7744   47.6875   53.9491 C   0  0  0  0  0  0  0  0  0  0  0  0
    6.6202   47.5571   54.6186 N   0  0  0  0  0  0  0  0  0  0  0  0
    2.4657   46.8594   54.7782 C   0  0  0  0  0  0  0  0  0  0  0  0
    1.1482   46.5271   54.4453 C   0  0  0  0  0  0  0  0  0  0  0  0
   -0.0626   47.7509   54.4621 Cl  0  0  0  0  0  0  0  0  0  0  0  0
    1.5623   43.2057   53.8237 H   0  0  0  0  0  0  0  0  0  0  0  0
    3.9066   43.7968   54.4208 H   0  0  0  0  0  0  0  0  0  0  0  0
    4.9406   46.5918   56.0604 H   0  0  0  0  0  0  0  0  0  0  0  0
    6.7752   45.3415   50.7152 H   0  0  0  0  0  0  0  0  0  0  0  0
    8.1901   44.4284   50.0611 H   0  0  0  0  0  0  0  0  0  0  0  0
    7.0471   42.4438   51.4403 H   0  0  0  0  0  0  0  0  0  0  0  0
    5.1943   43.8170   52.3145 H   0  0  0  0  0  0  0  0  0  0  0  0
    4.7161   44.2483   50.6171 H   0  0  0  0  0  0  0  0  0  0  0  0
    4.6358   41.4834   51.8963 H   0  0  0  0  0  0  0  0  0  0  0  0
    3.2318   42.5392   51.4513 H   0  0  0  0  0  0  0  0  0  0  0  0
    3.6604   40.7130   49.8007 H   0  0  0  0  0  0  0  0  0  0  0  0
    3.7888   42.3805   49.1067 H   0  0  0  0  0  0  0  0  0  0  0  0
    6.0864   40.5492   49.9225 H   0  0  0  0  0  0  0  0  0  0  0  0
    5.5898   41.0267   48.2454 H   0  0  0  0  0  0  0  0  0  0  0  0
    7.5769   42.2858   49.0897 H   0  0  0  0  0  0  0  0  0  0  0  0
    6.1522   43.3315   48.6772 H   0  0  0  0  0  0  0  0  0  0  0  0
   10.0757   46.7719   51.9864 H   0  0  0  0  0  0  0  0  0  0  0  0
   10.4460   49.1420   52.9665 H   0  0  0  0  0  0  0  0  0  0  0  0
    2.7099   47.8976   55.0474 H   0  0  0  0  0  0  0  0  0  0  0  0
  1  2  1  0
  2  3  2  0
  3  4  1  0
  4  5  2  0
  5  6  1  0
  6  7  1  0
  7  8  2  0
  8  9  1  0
  9 10  1  0
 10 11  1  0
 11 12  1  0
 12 13  1  0
 13 14  1  0
 14 15  1  0
 15 16  1  0
 16 17  1  0
  9 18  2  0
 18 19  1  0
 19 20  1  0
 20 21  2  0
 21 22  1  0
 22 23  2  0
  5 24  1  0
 24 25  2  0
 25 26  1  0
 25  2  1  0
 23  7  1  0
 17 12  1  0
 22 18  1  0
  3 27  1  0
  4 28  1  0
  6 29  1  0
 11 30  1  0
 11 31  1  0
 12 32  1  0
 13 33  1  0
 13 34  1  0
 14 35  1  0
 14 36  1  0
 15 37  1  0
 15 38  1  0
 16 39  1  0
 16 40  1  0
 17 41  1  0
 17 42  1  0
 19 43  1  0
 20 44  1  0
 24 45  1  0
M  END
>  <meeko>  (47) 
{"is_sidechain": false}

>  <CID>  (47) 
5329559

>  <pose_index>  (47) 
3

>  <docking_score>  (47) 
-9.367

>  <rmsd_to_best_selected>  (47) 
1.4758238515038016

>  <MWT>  (47) 
375.83499999999975

>  <TPSA>  (47) 
75.72

>  <logP>  (47) 
4.848100000000002

>  <HBD>  (47) 
2

>  <HBA>  (47) 
5

>  <SMILES>  (47) 
[H]c1c([H])c(N([H])c2nc(OC([H])([H])C3([H])C([H])([H])C([H])([H])C([H])([H])C([H])([H])C3([H])[H])c3c(n2)nc([H])n3[H])c([H])c(Cl)c1F

$$$$
5329559_pose1
     RDKit          3D

 45 48  0  0  0  0  0  0  0  0999 V2000
   -0.0430   44.0210   54.3220 F   0  0  0  0  0  0  0  0  0  0  0  0
    1.0900   44.7370   54.3840 C   0  0  0  0  0  0  0  0  0  0  0  0
    1.6720   44.9650   55.6230 C   0  0  0  0  0  0  0  0  0  0  0  0
    2.8540   45.7090   55.7090 C   0  0  0  0  0  0  0  0  0  0  0  0
    3.4700   46.2320   54.5650 C   0  0  0  0  0  0  0  0  0  0  0  0
    4.6540   46.9750   54.5890 N   0  0  0  0  0  0  0  0  0  0  0  0
    5.9290   46.8170   54.0410 C   0  0  0  0  0  0  0  0  0  0  0  0
    6.1000   46.3020   52.8050 N   0  0  0  0  0  0  0  0  0  0  0  0
    7.3450   46.1710   52.3080 C   0  0  0  0  0  0  0  0  0  0  0  0
    7.5810   45.6840   51.0430 O   0  0  0  0  0  0  0  0  0  0  0  0
    6.4240   45.2660   50.3160 C   0  0  0  0  0  0  0  0  0  0  0  0
    6.1010   43.7910   50.6040 C   0  0  0  0  0  0  0  0  0  0  0  0
    4.6120   43.6370   50.9520 C   0  0  0  0  0  0  0  0  0  0  0  0
    4.2360   42.1830   51.2230 C   0  0  0  0  0  0  0  0  0  0  0  0
    4.6200   41.2770   50.0570 C   0  0  0  0  0  0  0  0  0  0  0  0
    6.0980   41.4130   49.7120 C   0  0  0  0  0  0  0  0  0  0  0  0
    6.4840   42.8650   49.4380 C   0  0  0  0  0  0  0  0  0  0  0  0
    8.3920   46.5860   53.0860 C   0  0  0  0  0  0  0  0  0  0  0  0
    9.7480   46.6350   52.9400 N   0  0  0  0  0  0  0  0  0  0  0  0
   10.2610   47.1630   54.0930 C   0  0  0  0  0  0  0  0  0  0  0  0
    9.3140   47.4530   54.9590 N   0  0  0  0  0  0  0  0  0  0  0  0
    8.1450   47.0990   54.3390 C   0  0  0  0  0  0  0  0  0  0  0  0
    6.9140   47.2270   54.8520 N   0  0  0  0  0  0  0  0  0  0  0  0
    2.8590   45.9870   53.3230 C   0  0  0  0  0  0  0  0  0  0  0  0
    1.6770   45.2440   53.2320 C   0  0  0  0  0  0  0  0  0  0  0  0
    0.9670   44.9690   51.6880 Cl  0  0  0  0  0  0  0  0  0  0  0  0
    1.2058   44.5623   56.5343 H   0  0  0  0  0  0  0  0  0  0  0  0
    3.3085   45.8867   56.6948 H   0  0  0  0  0  0  0  0  0  0  0  0
    4.6400   47.8520   55.0940 H   0  0  0  0  0  0  0  0  0  0  0  0
    5.5668   45.8876   50.6141 H   0  0  0  0  0  0  0  0  0  0  0  0
    6.6238   45.3794   49.2403 H   0  0  0  0  0  0  0  0  0  0  0  0
    6.7115   43.4831   51.4657 H   0  0  0  0  0  0  0  0  0  0  0  0
    4.3935   44.2337   51.8499 H   0  0  0  0  0  0  0  0  0  0  0  0
    4.0237   43.9853   50.0902 H   0  0  0  0  0  0  0  0  0  0  0  0
    4.7598   41.8415   52.1280 H   0  0  0  0  0  0  0  0  0  0  0  0
    3.1455   42.1287   51.3563 H   0  0  0  0  0  0  0  0  0  0  0  0
    4.4109   40.2324   50.3312 H   0  0  0  0  0  0  0  0  0  0  0  0
    4.0299   41.5748   49.1777 H   0  0  0  0  0  0  0  0  0  0  0  0
    6.6966   41.0383   50.5553 H   0  0  0  0  0  0  0  0  0  0  0  0
    6.2919   40.8292   48.8001 H   0  0  0  0  0  0  0  0  0  0  0  0
    7.5716   42.9204   49.2826 H   0  0  0  0  0  0  0  0  0  0  0  0
    5.9375   43.1996   48.5439 H   0  0  0  0  0  0  0  0  0  0  0  0
   10.2700   46.3350   52.1270 H   0  0  0  0  0  0  0  0  0  0  0  0
   11.3338   47.3252   54.2739 H   0  0  0  0  0  0  0  0  0  0  0  0
    3.3182   46.3864   52.4067 H   0  0  0  0  0  0  0  0  0  0  0  0
  1  2  1  0
  2  3  2  0
  3  4  1  0
  4  5  2  0
  5  6  1  0
  6  7  1  0
  7  8  2  0
  8  9  1  0
  9 10  1  0
 10 11  1  0
 11 12  1  0
 12 13  1  0
 13 14  1  0
 14 15  1  0
 15 16  1  0
 16 17  1  0
  9 18  2  0
 18 19  1  0
 19 20  1  0
 20 21  2  0
 21 22  1  0
 22 23  2  0
  5 24  1  0
 24 25  2  0
 25 26  1  0
 25  2  1  0
 23  7  1  0
 17 12  1  0
 22 18  1  0
  3 27  1  0
  4 28  1  0
  6 29  1  0
 11 30  1  0
 11 31  1  0
 12 32  1  0
 13 33  1  0
 13 34  1  0
 14 35  1  0
 14 36  1  0
 15 37  1  0
 15 38  1  0
 16 39  1  0
 16 40  1  0
 17 41  1  0
 17 42  1  0
 19 43  1  0
 20 44  1  0
 24 45  1  0
M  END
>  <meeko>  (48) 
{"is_sidechain": false}

>  <CID>  (48) 
5329559

>  <pose_index>  (48) 
1

>  <docking_score>  (48) 
-9.454

>  <rmsd_to_best_selected>  (48) 
0.0

>  <MWT>  (48) 
375.83499999999975

>  <TPSA>  (48) 
75.72

>  <logP>  (48) 
4.848100000000002

>  <HBD>  (48) 
2

>  <HBA>  (48) 
5

>  <SMILES>  (48) 
[H]c1c([H])c(N([H])c2nc(OC([H])([H])C3([H])C([H])([H])C([H])([H])C([H])([H])C([H])([H])C3([H])[H])c3c(n2)nc([H])n3[H])c([H])c(Cl)c1F

$$$$
5329559_pose2
     RDKit          3D

 45 48  0  0  0  0  0  0  0  0999 V2000
    0.3222   43.5107   55.5347 F   0  0  0  0  0  0  0  0  0  0  0  0
    1.3259   44.3548   55.2545 C   0  0  0  0  0  0  0  0  0  0  0  0
    1.7721   45.2180   56.2454 C   0  0  0  0  0  0  0  0  0  0  0  0
    2.8177   46.1073   55.9725 C   0  0  0  0  0  0  0  0  0  0  0  0
    3.4311   46.1466   54.7151 C   0  0  0  0  0  0  0  0  0  0  0  0
    4.4840   47.0073   54.3878 N   0  0  0  0  0  0  0  0  0  0  0  0
    5.8137   46.8345   53.9953 C   0  0  0  0  0  0  0  0  0  0  0  0
    6.1712   45.8395   53.1565 N   0  0  0  0  0  0  0  0  0  0  0  0
    7.4616   45.7087   52.7952 C   0  0  0  0  0  0  0  0  0  0  0  0
    7.8833   44.7359   51.9178 O   0  0  0  0  0  0  0  0  0  0  0  0
    7.1929   44.6926   50.6665 C   0  0  0  0  0  0  0  0  0  0  0  0
    6.2077   43.5139   50.6257 C   0  0  0  0  0  0  0  0  0  0  0  0
    4.8012   44.0163   50.2644 C   0  0  0  0  0  0  0  0  0  0  0  0
    3.7897   42.8772   50.1858 C   0  0  0  0  0  0  0  0  0  0  0  0
    4.2452   41.7875   49.2194 C   0  0  0  0  0  0  0  0  0  0  0  0
    5.6345   41.2727   49.5770 C   0  0  0  0  0  0  0  0  0  0  0  0
    6.6540   42.4068   49.6557 C   0  0  0  0  0  0  0  0  0  0  0  0
    8.3610   46.6139   53.2920 C   0  0  0  0  0  0  0  0  0  0  0  0
    9.7015   46.8228   53.1556 N   0  0  0  0  0  0  0  0  0  0  0  0
   10.0232   47.9086   53.9230 C   0  0  0  0  0  0  0  0  0  0  0  0
    8.9675   48.4019   54.5352 N   0  0  0  0  0  0  0  0  0  0  0  0
    7.9268   47.6025   54.1461 C   0  0  0  0  0  0  0  0  0  0  0  0
    6.6483   47.7398   54.5240 N   0  0  0  0  0  0  0  0  0  0  0  0
    2.9580   45.2624   53.7283 C   0  0  0  0  0  0  0  0  0  0  0  0
    1.9131   44.3728   53.9959 C   0  0  0  0  0  0  0  0  0  0  0  0
    1.3693   43.3085   52.7570 Cl  0  0  0  0  0  0  0  0  0  0  0  0
    1.3057   45.2032   57.2415 H   0  0  0  0  0  0  0  0  0  0  0  0
    3.1646   46.7895   56.7626 H   0  0  0  0  0  0  0  0  0  0  0  0
    4.2917   48.0007   54.4066 H   0  0  0  0  0  0  0  0  0  0  0  0
    6.6371   45.6318   50.5288 H   0  0  0  0  0  0  0  0  0  0  0  0
    7.9312   44.5623   49.8615 H   0  0  0  0  0  0  0  0  0  0  0  0
    6.1887   43.0661   51.6302 H   0  0  0  0  0  0  0  0  0  0  0  0
    4.4715   44.7316   51.0323 H   0  0  0  0  0  0  0  0  0  0  0  0
    4.8545   44.4920   49.2740 H   0  0  0  0  0  0  0  0  0  0  0  0
    3.6678   42.4383   51.1870 H   0  0  0  0  0  0  0  0  0  0  0  0
    2.8375   43.2872   49.8181 H   0  0  0  0  0  0  0  0  0  0  0  0
    3.5319   40.9512   49.2610 H   0  0  0  0  0  0  0  0  0  0  0  0
    4.2849   42.2167   48.2074 H   0  0  0  0  0  0  0  0  0  0  0  0
    5.5871   40.7674   50.5530 H   0  0  0  0  0  0  0  0  0  0  0  0
    5.9559   40.5767   48.7881 H   0  0  0  0  0  0  0  0  0  0  0  0
    7.6149   41.9977   50.0011 H   0  0  0  0  0  0  0  0  0  0  0  0
    6.7486   42.8500   48.6534 H   0  0  0  0  0  0  0  0  0  0  0  0
   10.3353   46.2735   52.5900 H   0  0  0  0  0  0  0  0  0  0  0  0
   11.0394   48.3191   54.0169 H   0  0  0  0  0  0  0  0  0  0  0  0
    3.4181   45.2710   52.7292 H   0  0  0  0  0  0  0  0  0  0  0  0
  1  2  1  0
  2  3  2  0
  3  4  1  0
  4  5  2  0
  5  6  1  0
  6  7  1  0
  7  8  2  0
  8  9  1  0
  9 10  1  0
 10 11  1  0
 11 12  1  0
 12 13  1  0
 13 14  1  0
 14 15  1  0
 15 16  1  0
 16 17  1  0
  9 18  2  0
 18 19  1  0
 19 20  1  0
 20 21  2  0
 21 22  1  0
 22 23  2  0
  5 24  1  0
 24 25  2  0
 25 26  1  0
 25  2  1  0
 23  7  1  0
 17 12  1  0
 22 18  1  0
  3 27  1  0
  4 28  1  0
  6 29  1  0
 11 30  1  0
 11 31  1  0
 12 32  1  0
 13 33  1  0
 13 34  1  0
 14 35  1  0
 14 36  1  0
 15 37  1  0
 15 38  1  0
 16 39  1  0
 16 40  1  0
 17 41  1  0
 17 42  1  0
 19 43  1  0
 20 44  1  0
 24 45  1  0
M  END
>  <meeko>  (49) 
{"is_sidechain": false}

>  <CID>  (49) 
5329559

>  <pose_index>  (49) 
2

>  <docking_score>  (49) 
-9.4

>  <rmsd_to_best_selected>  (49) 
1.0122376851207917

>  <MWT>  (49) 
375.83499999999975

>  <TPSA>  (49) 
75.72

>  <logP>  (49) 
4.848100000000002

>  <HBD>  (49) 
2

>  <HBA>  (49) 
5

>  <SMILES>  (49) 
[H]c1c([H])c(N([H])c2nc(OC([H])([H])C3([H])C([H])([H])C([H])([H])C([H])([H])C([H])([H])C3([H])[H])c3c(n2)nc([H])n3[H])c([H])c(Cl)c1F

$$$$
5329559_pose5
     RDKit          3D

 45 48  0  0  0  0  0  0  0  0999 V2000
   -0.4906   45.6133   54.4009 F   0  0  0  0  0  0  0  0  0  0  0  0
    0.8302   45.7238   54.6077 C   0  0  0  0  0  0  0  0  0  0  0  0
    1.2865   46.6262   55.5589 C   0  0  0  0  0  0  0  0  0  0  0  0
    2.6601   46.7574   55.7896 C   0  0  0  0  0  0  0  0  0  0  0  0
    3.5944   45.9942   55.0788 C   0  0  0  0  0  0  0  0  0  0  0  0
    4.9764   46.0773   55.2710 N   0  0  0  0  0  0  0  0  0  0  0  0
    6.0746   46.3282   54.4453 C   0  0  0  0  0  0  0  0  0  0  0  0
    6.2875   45.6033   53.3262 N   0  0  0  0  0  0  0  0  0  0  0  0
    7.3526   45.8792   52.5506 C   0  0  0  0  0  0  0  0  0  0  0  0
    7.6046   45.1987   51.3820 O   0  0  0  0  0  0  0  0  0  0  0  0
    7.4312   43.7814   51.4428 C   0  0  0  0  0  0  0  0  0  0  0  0
    6.4099   43.3090   50.3951 C   0  0  0  0  0  0  0  0  0  0  0  0
    6.7131   41.8619   49.9793 C   0  0  0  0  0  0  0  0  0  0  0  0
    5.7089   41.3387   48.9575 C   0  0  0  0  0  0  0  0  0  0  0  0
    4.2755   41.4712   49.4595 C   0  0  0  0  0  0  0  0  0  0  0  0
    3.9590   42.9060   49.8640 C   0  0  0  0  0  0  0  0  0  0  0  0
    4.9588   43.4380   50.8888 C   0  0  0  0  0  0  0  0  0  0  0  0
    8.1734   46.9068   52.9314 C   0  0  0  0  0  0  0  0  0  0  0  0
    9.2999   47.4852   52.4250 N   0  0  0  0  0  0  0  0  0  0  0  0
    9.6595   48.4901   53.2811 C   0  0  0  0  0  0  0  0  0  0  0  0
    8.8296   48.5846   54.2978 N   0  0  0  0  0  0  0  0  0  0  0  0
    7.8971   47.6026   54.0861 C   0  0  0  0  0  0  0  0  0  0  0  0
    6.8485   47.3342   54.8743 N   0  0  0  0  0  0  0  0  0  0  0  0
    3.1051   45.0886   54.1201 C   0  0  0  0  0  0  0  0  0  0  0  0
    1.7331   44.9543   53.8853 C   0  0  0  0  0  0  0  0  0  0  0  0
    1.1822   43.8323   52.7027 Cl  0  0  0  0  0  0  0  0  0  0  0  0
    0.5704   47.2360   56.1293 H   0  0  0  0  0  0  0  0  0  0  0  0
    3.0134   47.4749   56.5448 H   0  0  0  0  0  0  0  0  0  0  0  0
    5.3205   45.9505   56.2150 H   0  0  0  0  0  0  0  0  0  0  0  0
    8.3972   43.2917   51.2507 H   0  0  0  0  0  0  0  0  0  0  0  0
    7.0581   43.5153   52.4428 H   0  0  0  0  0  0  0  0  0  0  0  0
    6.5075   43.9681   49.5199 H   0  0  0  0  0  0  0  0  0  0  0  0
    7.7206   41.8225   49.5394 H   0  0  0  0  0  0  0  0  0  0  0  0
    6.6458   41.2293   50.8767 H   0  0  0  0  0  0  0  0  0  0  0  0
    5.8153   41.9137   48.0258 H   0  0  0  0  0  0  0  0  0  0  0  0
    5.9161   40.2719   48.7870 H   0  0  0  0  0  0  0  0  0  0  0  0
    3.5860   41.1646   48.6591 H   0  0  0  0  0  0  0  0  0  0  0  0
    4.1572   40.8279   50.3439 H   0  0  0  0  0  0  0  0  0  0  0  0
    3.9926   43.5443   48.9687 H   0  0  0  0  0  0  0  0  0  0  0  0
    2.9588   42.9204   50.3214 H   0  0  0  0  0  0  0  0  0  0  0  0
    4.7413   44.4992   51.0802 H   0  0  0  0  0  0  0  0  0  0  0  0
    4.8566   42.8405   51.8067 H   0  0  0  0  0  0  0  0  0  0  0  0
    9.7754   47.2173   51.5735 H   0  0  0  0  0  0  0  0  0  0  0  0
   10.5354   49.1397   53.1371 H   0  0  0  0  0  0  0  0  0  0  0  0
    3.8142   44.4752   53.5449 H   0  0  0  0  0  0  0  0  0  0  0  0
  1  2  1  0
  2  3  2  0
  3  4  1  0
  4  5  2  0
  5  6  1  0
  6  7  1  0
  7  8  2  0
  8  9  1  0
  9 10  1  0
 10 11  1  0
 11 12  1  0
 12 13  1  0
 13 14  1  0
 14 15  1  0
 15 16  1  0
 16 17  1  0
  9 18  2  0
 18 19  1  0
 19 20  1  0
 20 21  2  0
 21 22  1  0
 22 23  2  0
  5 24  1  0
 24 25  2  0
 25 26  1  0
 25  2  1  0
 23  7  1  0
 17 12  1  0
 22 18  1  0
  3 27  1  0
  4 28  1  0
  6 29  1  0
 11 30  1  0
 11 31  1  0
 12 32  1  0
 13 33  1  0
 13 34  1  0
 14 35  1  0
 14 36  1  0
 15 37  1  0
 15 38  1  0
 16 39  1  0
 16 40  1  0
 17 41  1  0
 17 42  1  0
 19 43  1  0
 20 44  1  0
 24 45  1  0
M  END
>  <meeko>  (50) 
{"is_sidechain": false}

>  <CID>  (50) 
5329559

>  <pose_index>  (50) 
5

>  <docking_score>  (50) 
-9.23

>  <rmsd_to_best_selected>  (50) 
1.6502935834126984

>  <MWT>  (50) 
375.83499999999975

>  <TPSA>  (50) 
75.72

>  <logP>  (50) 
4.848100000000002

>  <HBD>  (50) 
2

>  <HBA>  (50) 
5

>  <SMILES>  (50) 
[H]c1c([H])c(N([H])c2nc(OC([H])([H])C3([H])C([H])([H])C([H])([H])C([H])([H])C([H])([H])C3([H])[H])c3c(n2)nc([H])n3[H])c([H])c(Cl)c1F

$$$$
5329559_pose7
     RDKit          3D

 45 48  0  0  0  0  0  0  0  0999 V2000
   -0.3996   45.5113   53.7695 F   0  0  0  0  0  0  0  0  0  0  0  0
    0.9007   45.6085   54.0834 C   0  0  0  0  0  0  0  0  0  0  0  0
    1.2659   46.3376   55.2069 C   0  0  0  0  0  0  0  0  0  0  0  0
    2.6171   46.4511   55.5527 C   0  0  0  0  0  0  0  0  0  0  0  0
    3.6179   45.8421   54.7864 C   0  0  0  0  0  0  0  0  0  0  0  0
    4.9824   45.9153   55.0862 N   0  0  0  0  0  0  0  0  0  0  0  0
    6.1511   46.0573   54.3348 C   0  0  0  0  0  0  0  0  0  0  0  0
    6.4747   45.1695   53.3708 N   0  0  0  0  0  0  0  0  0  0  0  0
    7.6068   45.3434   52.6621 C   0  0  0  0  0  0  0  0  0  0  0  0
    7.9727   44.4925   51.6446 O   0  0  0  0  0  0  0  0  0  0  0  0
    7.5969   43.1245   51.8185 C   0  0  0  0  0  0  0  0  0  0  0  0
    6.5287   42.7165   50.7914 C   0  0  0  0  0  0  0  0  0  0  0  0
    5.2683   42.2162   51.5132 C   0  0  0  0  0  0  0  0  0  0  0  0
    4.1671   41.8218   50.5327 C   0  0  0  0  0  0  0  0  0  0  0  0
    3.8320   42.9620   49.5770 C   0  0  0  0  0  0  0  0  0  0  0  0
    5.0733   43.4571   48.8458 C   0  0  0  0  0  0  0  0  0  0  0  0
    6.1812   43.8562   49.8190 C   0  0  0  0  0  0  0  0  0  0  0  0
    8.3794   46.4367   52.9492 C   0  0  0  0  0  0  0  0  0  0  0  0
    9.5449   46.9533   52.4634 N   0  0  0  0  0  0  0  0  0  0  0  0
    9.8151   48.0882   53.1783 C   0  0  0  0  0  0  0  0  0  0  0  0
    8.8908   48.3223   54.0857 N   0  0  0  0  0  0  0  0  0  0  0  0
    7.9909   47.2990   53.9485 C   0  0  0  0  0  0  0  0  0  0  0  0
    6.8734   47.1354   54.6687 N   0  0  0  0  0  0  0  0  0  0  0  0
    3.2208   45.1113   53.6518 C   0  0  0  0  0  0  0  0  0  0  0  0
    1.8722   44.9953   53.3031 C   0  0  0  0  0  0  0  0  0  0  0  0
    1.4339   44.0885   51.9063 Cl  0  0  0  0  0  0  0  0  0  0  0  0
    0.4957   46.8244   55.8233 H   0  0  0  0  0  0  0  0  0  0  0  0
    2.8985   47.0305   56.4444 H   0  0  0  0  0  0  0  0  0  0  0  0
    5.2435   45.8776   56.0633 H   0  0  0  0  0  0  0  0  0  0  0  0
    8.4841   42.4875   51.6883 H   0  0  0  0  0  0  0  0  0  0  0  0
    7.1802   42.9992   52.8288 H   0  0  0  0  0  0  0  0  0  0  0  0
    6.9498   41.9008   50.1853 H   0  0  0  0  0  0  0  0  0  0  0  0
    5.5324   41.3391   52.1223 H   0  0  0  0  0  0  0  0  0  0  0  0
    4.8876   43.0358   52.1402 H   0  0  0  0  0  0  0  0  0  0  0  0
    4.5040   40.9532   49.9479 H   0  0  0  0  0  0  0  0  0  0  0  0
    3.2627   41.5797   51.1101 H   0  0  0  0  0  0  0  0  0  0  0  0
    3.0994   42.6059   48.8378 H   0  0  0  0  0  0  0  0  0  0  0  0
    3.4202   43.7962   50.1640 H   0  0  0  0  0  0  0  0  0  0  0  0
    5.4454   42.6547   48.1917 H   0  0  0  0  0  0  0  0  0  0  0  0
    4.7947   44.3457   48.2604 H   0  0  0  0  0  0  0  0  0  0  0  0
    7.0813   44.1201   49.2443 H   0  0  0  0  0  0  0  0  0  0  0  0
    5.8233   44.7117   50.4105 H   0  0  0  0  0  0  0  0  0  0  0  0
   10.1015   46.5654   51.7129 H   0  0  0  0  0  0  0  0  0  0  0  0
   10.6961   48.7263   53.0148 H   0  0  0  0  0  0  0  0  0  0  0  0
    3.9844   44.6229   53.0286 H   0  0  0  0  0  0  0  0  0  0  0  0
  1  2  1  0
  2  3  2  0
  3  4  1  0
  4  5  2  0
  5  6  1  0
  6  7  1  0
  7  8  2  0
  8  9  1  0
  9 10  1  0
 10 11  1  0
 11 12  1  0
 12 13  1  0
 13 14  1  0
 14 15  1  0
 15 16  1  0
 16 17  1  0
  9 18  2  0
 18 19  1  0
 19 20  1  0
 20 21  2  0
 21 22  1  0
 22 23  2  0
  5 24  1  0
 24 25  2  0
 25 26  1  0
 25  2  1  0
 23  7  1  0
 17 12  1  0
 22 18  1  0
  3 27  1  0
  4 28  1  0
  6 29  1  0
 11 30  1  0
 11 31  1  0
 12 32  1  0
 13 33  1  0
 13 34  1  0
 14 35  1  0
 14 36  1  0
 15 37  1  0
 15 38  1  0
 16 39  1  0
 16 40  1  0
 17 41  1  0
 17 42  1  0
 19 43  1  0
 20 44  1  0
 24 45  1  0
M  END
>  <meeko>  (51) 
{"is_sidechain": false}

>  <CID>  (51) 
5329559

>  <pose_index>  (51) 
7

>  <docking_score>  (51) 
-8.71

>  <rmsd_to_best_selected>  (51) 
1.9316883478540277

>  <MWT>  (51) 
375.83499999999975

>  <TPSA>  (51) 
75.72

>  <logP>  (51) 
4.848100000000002

>  <HBD>  (51) 
2

>  <HBA>  (51) 
5

>  <SMILES>  (51) 
[H]c1c([H])c(N([H])c2nc(OC([H])([H])C3([H])C([H])([H])C([H])([H])C([H])([H])C([H])([H])C3([H])[H])c3c(n2)nc([H])n3[H])c([H])c(Cl)c1F

$$$$
5329559_pose8
     RDKit          3D

 45 48  0  0  0  0  0  0  0  0999 V2000
   -0.2940   45.6092   53.2752 F   0  0  0  0  0  0  0  0  0  0  0  0
    0.9903   45.6352   53.6616 C   0  0  0  0  0  0  0  0  0  0  0  0
    1.2814   45.8034   55.0074 C   0  0  0  0  0  0  0  0  0  0  0  0
    2.6155   45.8326   55.4319 C   0  0  0  0  0  0  0  0  0  0  0  0
    3.6709   45.6930   54.5228 C   0  0  0  0  0  0  0  0  0  0  0  0
    5.0204   45.7078   54.8884 N   0  0  0  0  0  0  0  0  0  0  0  0
    6.2245   45.9122   54.2102 C   0  0  0  0  0  0  0  0  0  0  0  0
    6.7114   44.9880   53.3554 N   0  0  0  0  0  0  0  0  0  0  0  0
    7.8722   45.2244   52.7140 C   0  0  0  0  0  0  0  0  0  0  0  0
    8.4019   44.3367   51.8070 O   0  0  0  0  0  0  0  0  0  0  0  0
    7.7256   43.0819   51.7031 C   0  0  0  0  0  0  0  0  0  0  0  0
    6.2580   43.2835   51.2934 C   0  0  0  0  0  0  0  0  0  0  0  0
    6.1660   43.5646   49.7847 C   0  0  0  0  0  0  0  0  0  0  0  0
    4.7235   43.7477   49.3241 C   0  0  0  0  0  0  0  0  0  0  0  0
    3.8558   42.5540   49.7103 C   0  0  0  0  0  0  0  0  0  0  0  0
    3.9289   42.2742   51.2070 C   0  0  0  0  0  0  0  0  0  0  0  0
    5.3695   42.0883   51.6771 C   0  0  0  0  0  0  0  0  0  0  0  0
    8.5044   46.4152   52.9527 C   0  0  0  0  0  0  0  0  0  0  0  0
    9.6449   47.0131   52.5033 N   0  0  0  0  0  0  0  0  0  0  0  0
    9.7401   48.2267   53.1287 C   0  0  0  0  0  0  0  0  0  0  0  0
    8.7294   48.4340   53.9445 N   0  0  0  0  0  0  0  0  0  0  0  0
    7.9521   47.3107   53.8388 C   0  0  0  0  0  0  0  0  0  0  0  0
    6.8044   47.0868   54.4934 N   0  0  0  0  0  0  0  0  0  0  0  0
    3.3474   45.5254   53.1647 C   0  0  0  0  0  0  0  0  0  0  0  0
    2.0167   45.4960   52.7366 C   0  0  0  0  0  0  0  0  0  0  0  0
    1.6703   45.2871   51.0635 Cl  0  0  0  0  0  0  0  0  0  0  0  0
    0.4670   45.9136   55.7386 H   0  0  0  0  0  0  0  0  0  0  0  0
    2.8385   45.9678   56.5006 H   0  0  0  0  0  0  0  0  0  0  0  0
    5.2369   45.5546   55.8649 H   0  0  0  0  0  0  0  0  0  0  0  0
    8.2292   42.4627   50.9461 H   0  0  0  0  0  0  0  0  0  0  0  0
    7.7521   42.5854   52.6843 H   0  0  0  0  0  0  0  0  0  0  0  0
    5.8781   44.1524   51.8508 H   0  0  0  0  0  0  0  0  0  0  0  0
    6.7298   44.4819   49.5594 H   0  0  0  0  0  0  0  0  0  0  0  0
    6.5853   42.6986   49.2517 H   0  0  0  0  0  0  0  0  0  0  0  0
    4.3118   44.6545   49.7913 H   0  0  0  0  0  0  0  0  0  0  0  0
    4.7205   43.8353   48.2276 H   0  0  0  0  0  0  0  0  0  0  0  0
    2.8119   42.7669   49.4366 H   0  0  0  0  0  0  0  0  0  0  0  0
    4.2271   41.6682   49.1740 H   0  0  0  0  0  0  0  0  0  0  0  0
    3.4832   43.1206   51.7501 H   0  0  0  0  0  0  0  0  0  0  0  0
    3.3795   41.3429   51.4090 H   0  0  0  0  0  0  0  0  0  0  0  0
    5.3747   41.9784   52.7716 H   0  0  0  0  0  0  0  0  0  0  0  0
    5.7747   41.1914   51.1858 H   0  0  0  0  0  0  0  0  0  0  0  0
   10.2954   46.6262   51.8318 H   0  0  0  0  0  0  0  0  0  0  0  0
   10.5611   48.9411   52.9688 H   0  0  0  0  0  0  0  0  0  0  0  0
    4.1552   45.4154   52.4263 H   0  0  0  0  0  0  0  0  0  0  0  0
  1  2  1  0
  2  3  2  0
  3  4  1  0
  4  5  2  0
  5  6  1  0
  6  7  1  0
  7  8  2  0
  8  9  1  0
  9 10  1  0
 10 11  1  0
 11 12  1  0
 12 13  1  0
 13 14  1  0
 14 15  1  0
 15 16  1  0
 16 17  1  0
  9 18  2  0
 18 19  1  0
 19 20  1  0
 20 21  2  0
 21 22  1  0
 22 23  2  0
  5 24  1  0
 24 25  2  0
 25 26  1  0
 25  2  1  0
 23  7  1  0
 17 12  1  0
 22 18  1  0
  3 27  1  0
  4 28  1  0
  6 29  1  0
 11 30  1  0
 11 31  1  0
 12 32  1  0
 13 33  1  0
 13 34  1  0
 14 35  1  0
 14 36  1  0
 15 37  1  0
 15 38  1  0
 16 39  1  0
 16 40  1  0
 17 41  1  0
 17 42  1  0
 19 43  1  0
 20 44  1  0
 24 45  1  0
M  END
>  <meeko>  (52) 
{"is_sidechain": false}

>  <CID>  (52) 
5329559

>  <pose_index>  (52) 
8

>  <docking_score>  (52) 
-8.685

>  <rmsd_to_best_selected>  (52) 
1.8848987292733104

>  <MWT>  (52) 
375.83499999999975

>  <TPSA>  (52) 
75.72

>  <logP>  (52) 
4.848100000000002

>  <HBD>  (52) 
2

>  <HBA>  (52) 
5

>  <SMILES>  (52) 
[H]c1c([H])c(N([H])c2nc(OC([H])([H])C3([H])C([H])([H])C([H])([H])C([H])([H])C([H])([H])C3([H])[H])c3c(n2)nc([H])n3[H])c([H])c(Cl)c1F

$$$$
5329560_pose3
     RDKit          3D

 49 52  0  0  0  0  0  0  0  0999 V2000
    9.9266   48.2668   55.5476 C   0  0  0  0  0  0  0  0  0  0  0  0
   10.0590   48.7889   54.2312 O   0  0  0  0  0  0  0  0  0  0  0  0
    9.5373   48.0366   53.2165 C   0  0  0  0  0  0  0  0  0  0  0  0
    8.6371   48.4720   52.2482 C   0  0  0  0  0  0  0  0  0  0  0  0
    8.1798   47.5902   51.2572 C   0  0  0  0  0  0  0  0  0  0  0  0
    8.6059   46.2603   51.2088 C   0  0  0  0  0  0  0  0  0  0  0  0
    8.1833   45.3355   50.2479 N   0  0  0  0  0  0  0  0  0  0  0  0
    7.1164   44.4409   50.1605 C   0  0  0  0  0  0  0  0  0  0  0  0
    5.9704   44.9140   50.7022 N   0  0  0  0  0  0  0  0  0  0  0  0
    4.8628   44.1512   50.6852 C   0  0  0  0  0  0  0  0  0  0  0  0
    3.6755   44.5719   51.2393 O   0  0  0  0  0  0  0  0  0  0  0  0
    3.7622   45.6745   52.1439 C   0  0  0  0  0  0  0  0  0  0  0  0
    3.8812   45.1626   53.5897 C   0  0  0  0  0  0  0  0  0  0  0  0
    4.8907   45.9987   54.4008 C   0  0  0  0  0  0  0  0  0  0  0  0
    4.6441   45.8757   55.8998 C   0  0  0  0  0  0  0  0  0  0  0  0
    3.2629   46.4064   56.2880 C   0  0  0  0  0  0  0  0  0  0  0  0
    2.2288   46.2877   55.1664 C   0  0  0  0  0  0  0  0  0  0  0  0
    2.5013   45.0855   54.2716 C   0  0  0  0  0  0  0  0  0  0  0  0
    4.9525   42.9076   50.1175 C   0  0  0  0  0  0  0  0  0  0  0  0
    4.0903   41.8700   49.9217 N   0  0  0  0  0  0  0  0  0  0  0  0
    4.7865   40.8790   49.2830 C   0  0  0  0  0  0  0  0  0  0  0  0
    6.0373   41.2264   49.0660 N   0  0  0  0  0  0  0  0  0  0  0  0
    6.1499   42.4909   49.5836 C   0  0  0  0  0  0  0  0  0  0  0  0
    7.2593   43.2407   49.5891 N   0  0  0  0  0  0  0  0  0  0  0  0
    9.5120   45.8377   52.1927 C   0  0  0  0  0  0  0  0  0  0  0  0
    9.9711   46.7133   53.1825 C   0  0  0  0  0  0  0  0  0  0  0  0
   10.7441   47.5578   55.7448 H   0  0  0  0  0  0  0  0  0  0  0  0
    9.9722   49.0906   56.2751 H   0  0  0  0  0  0  0  0  0  0  0  0
    8.9610   47.7482   55.6410 H   0  0  0  0  0  0  0  0  0  0  0  0
    8.2822   49.5131   52.2599 H   0  0  0  0  0  0  0  0  0  0  0  0
    7.4692   47.9544   50.5007 H   0  0  0  0  0  0  0  0  0  0  0  0
    8.7339   45.2710   49.4049 H   0  0  0  0  0  0  0  0  0  0  0  0
    4.6479   46.2786   51.8976 H   0  0  0  0  0  0  0  0  0  0  0  0
    2.8539   46.2882   52.0523 H   0  0  0  0  0  0  0  0  0  0  0  0
    4.2763   44.1366   53.5538 H   0  0  0  0  0  0  0  0  0  0  0  0
    5.9082   45.6463   54.1762 H   0  0  0  0  0  0  0  0  0  0  0  0
    4.7693   47.0546   54.1175 H   0  0  0  0  0  0  0  0  0  0  0  0
    4.7134   44.8162   56.1873 H   0  0  0  0  0  0  0  0  0  0  0  0
    5.4031   46.4751   56.4239 H   0  0  0  0  0  0  0  0  0  0  0  0
    2.9020   45.8363   57.1568 H   0  0  0  0  0  0  0  0  0  0  0  0
    3.3777   47.4772   56.5118 H   0  0  0  0  0  0  0  0  0  0  0  0
    1.2294   46.1799   55.6133 H   0  0  0  0  0  0  0  0  0  0  0  0
    2.2891   47.1954   54.5479 H   0  0  0  0  0  0  0  0  0  0  0  0
    2.4601   44.1726   54.8839 H   0  0  0  0  0  0  0  0  0  0  0  0
    1.7363   45.0750   53.4812 H   0  0  0  0  0  0  0  0  0  0  0  0
    3.1182   41.8417   50.1987 H   0  0  0  0  0  0  0  0  0  0  0  0
    4.3537   39.9117   48.9878 H   0  0  0  0  0  0  0  0  0  0  0  0
    9.8687   44.7972   52.1859 H   0  0  0  0  0  0  0  0  0  0  0  0
   10.6814   46.3534   53.9414 H   0  0  0  0  0  0  0  0  0  0  0  0
  1  2  1  0
  2  3  1  0
  3  4  2  0
  4  5  1  0
  5  6  2  0
  6  7  1  0
  7  8  1  0
  8  9  2  0
  9 10  1  0
 10 11  1  0
 11 12  1  0
 12 13  1  0
 13 14  1  0
 14 15  1  0
 15 16  1  0
 16 17  1  0
 17 18  1  0
 10 19  2  0
 19 20  1  0
 20 21  1  0
 21 22  2  0
 22 23  1  0
 23 24  2  0
  6 25  1  0
 25 26  2  0
 26  3  1  0
 24  8  1  0
 18 13  1  0
 23 19  1  0
  1 27  1  0
  1 28  1  0
  1 29  1  0
  4 30  1  0
  5 31  1  0
  7 32  1  0
 12 33  1  0
 12 34  1  0
 13 35  1  0
 14 36  1  0
 14 37  1  0
 15 38  1  0
 15 39  1  0
 16 40  1  0
 16 41  1  0
 17 42  1  0
 17 43  1  0
 18 44  1  0
 18 45  1  0
 20 46  1  0
 21 47  1  0
 25 48  1  0
 26 49  1  0
M  END
>  <meeko>  (53) 
{"is_sidechain": false}

>  <CID>  (53) 
5329560

>  <pose_index>  (53) 
3

>  <docking_score>  (53) 
-8.894

>  <rmsd_to_best_selected>  (53) 
1.9635805044996166

>  <MWT>  (53) 
353.42599999999965

>  <TPSA>  (53) 
84.95

>  <logP>  (53) 
4.064200000000002

>  <HBD>  (53) 
2

>  <HBA>  (53) 
6

>  <SMILES>  (53) 
[H]c1c([H])c(N([H])c2nc(OC([H])([H])C3([H])C([H])([H])C([H])([H])C([H])([H])C([H])([H])C3([H])[H])c3c(n2)nc([H])n3[H])c([H])c([H])c1OC([H])([H])[H]

$$$$
5329560_pose1
     RDKit          3D

 49 52  0  0  0  0  0  0  0  0999 V2000
   11.0800   47.4920   56.2410 C   0  0  0  0  0  0  0  0  0  0  0  0
    9.9020   48.0460   55.6680 O   0  0  0  0  0  0  0  0  0  0  0  0
    9.4700   47.4930   54.4960 C   0  0  0  0  0  0  0  0  0  0  0  0
   10.2710   46.9180   53.5130 C   0  0  0  0  0  0  0  0  0  0  0  0
    9.6940   46.3840   52.3510 C   0  0  0  0  0  0  0  0  0  0  0  0
    8.3120   46.4100   52.1420 C   0  0  0  0  0  0  0  0  0  0  0  0
    7.6800   45.8960   51.0050 N   0  0  0  0  0  0  0  0  0  0  0  0
    6.8680   44.7890   50.7600 C   0  0  0  0  0  0  0  0  0  0  0  0
    5.8690   44.6430   51.6600 N   0  0  0  0  0  0  0  0  0  0  0  0
    5.0100   43.6140   51.5410 C   0  0  0  0  0  0  0  0  0  0  0  0
    3.9900   43.4040   52.4380 O   0  0  0  0  0  0  0  0  0  0  0  0
    2.7920   44.1510   52.2110 C   0  0  0  0  0  0  0  0  0  0  0  0
    2.5820   45.1680   53.3460 C   0  0  0  0  0  0  0  0  0  0  0  0
    3.6400   44.9990   54.4540 C   0  0  0  0  0  0  0  0  0  0  0  0
    3.7910   46.2680   55.2830 C   0  0  0  0  0  0  0  0  0  0  0  0
    4.2710   47.4440   54.4300 C   0  0  0  0  0  0  0  0  0  0  0  0
    3.8530   47.3410   52.9630 C   0  0  0  0  0  0  0  0  0  0  0  0
    2.5260   46.6090   52.8030 C   0  0  0  0  0  0  0  0  0  0  0  0
    5.1980   42.7450   50.4990 C   0  0  0  0  0  0  0  0  0  0  0  0
    4.5730   41.6170   50.0570 N   0  0  0  0  0  0  0  0  0  0  0  0
    5.2420   41.1930   48.9410 C   0  0  0  0  0  0  0  0  0  0  0  0
    6.2540   41.9840   48.6500 N   0  0  0  0  0  0  0  0  0  0  0  0
    6.2340   42.9550   49.6180 C   0  0  0  0  0  0  0  0  0  0  0  0
    7.0930   43.9770   49.7210 N   0  0  0  0  0  0  0  0  0  0  0  0
    7.5200   46.9950   53.1420 C   0  0  0  0  0  0  0  0  0  0  0  0
    8.0920   47.5290   54.3030 C   0  0  0  0  0  0  0  0  0  0  0  0
   11.0056   47.5270   57.3379 H   0  0  0  0  0  0  0  0  0  0  0  0
   11.1905   46.4475   55.9141 H   0  0  0  0  0  0  0  0  0  0  0  0
   11.9550   48.0730   55.9141 H   0  0  0  0  0  0  0  0  0  0  0  0
   11.3621   46.8822   53.6482 H   0  0  0  0  0  0  0  0  0  0  0  0
   10.3444   45.9342   51.5863 H   0  0  0  0  0  0  0  0  0  0  0  0
    7.7980   46.4120   50.1460 H   0  0  0  0  0  0  0  0  0  0  0  0
    2.8724   44.6858   51.2531 H   0  0  0  0  0  0  0  0  0  0  0  0
    1.9363   43.4604   52.1825 H   0  0  0  0  0  0  0  0  0  0  0  0
    1.6046   44.9637   53.8074 H   0  0  0  0  0  0  0  0  0  0  0  0
    3.3357   44.1745   55.1155 H   0  0  0  0  0  0  0  0  0  0  0  0
    4.6070   44.7828   53.9764 H   0  0  0  0  0  0  0  0  0  0  0  0
    2.8171   46.5227   55.7265 H   0  0  0  0  0  0  0  0  0  0  0  0
    4.5418   46.0810   56.0649 H   0  0  0  0  0  0  0  0  0  0  0  0
    3.8521   48.3714   54.8476 H   0  0  0  0  0  0  0  0  0  0  0  0
    5.3707   47.4359   54.4555 H   0  0  0  0  0  0  0  0  0  0  0  0
    3.7523   48.3553   52.5493 H   0  0  0  0  0  0  0  0  0  0  0  0
    4.6253   46.7702   52.4266 H   0  0  0  0  0  0  0  0  0  0  0  0
    1.7487   47.1628   53.3499 H   0  0  0  0  0  0  0  0  0  0  0  0
    2.3002   46.5542   51.7278 H   0  0  0  0  0  0  0  0  0  0  0  0
    3.7660   41.1780   50.4790 H   0  0  0  0  0  0  0  0  0  0  0  0
    4.9681   40.3010   48.3585 H   0  0  0  0  0  0  0  0  0  0  0  0
    6.4285   47.0348   53.0111 H   0  0  0  0  0  0  0  0  0  0  0  0
    7.4462   47.9813   55.0700 H   0  0  0  0  0  0  0  0  0  0  0  0
  1  2  1  0
  2  3  1  0
  3  4  2  0
  4  5  1  0
  5  6  2  0
  6  7  1  0
  7  8  1  0
  8  9  2  0
  9 10  1  0
 10 11  1  0
 11 12  1  0
 12 13  1  0
 13 14  1  0
 14 15  1  0
 15 16  1  0
 16 17  1  0
 17 18  1  0
 10 19  2  0
 19 20  1  0
 20 21  1  0
 21 22  2  0
 22 23  1  0
 23 24  2  0
  6 25  1  0
 25 26  2  0
 26  3  1  0
 24  8  1  0
 18 13  1  0
 23 19  1  0
  1 27  1  0
  1 28  1  0
  1 29  1  0
  4 30  1  0
  5 31  1  0
  7 32  1  0
 12 33  1  0
 12 34  1  0
 13 35  1  0
 14 36  1  0
 14 37  1  0
 15 38  1  0
 15 39  1  0
 16 40  1  0
 16 41  1  0
 17 42  1  0
 17 43  1  0
 18 44  1  0
 18 45  1  0
 20 46  1  0
 21 47  1  0
 25 48  1  0
 26 49  1  0
M  END
>  <meeko>  (54) 
{"is_sidechain": false}

>  <CID>  (54) 
5329560

>  <pose_index>  (54) 
1

>  <docking_score>  (54) 
-9.08

>  <rmsd_to_best_selected>  (54) 
0.0

>  <MWT>  (54) 
353.42599999999965

>  <TPSA>  (54) 
84.95

>  <logP>  (54) 
4.064200000000002

>  <HBD>  (54) 
2

>  <HBA>  (54) 
6

>  <SMILES>  (54) 
[H]c1c([H])c(N([H])c2nc(OC([H])([H])C3([H])C([H])([H])C([H])([H])C([H])([H])C([H])([H])C3([H])[H])c3c(n2)nc([H])n3[H])c([H])c([H])c1OC([H])([H])[H]

$$$$
5329560_pose2
     RDKit          3D

 49 52  0  0  0  0  0  0  0  0999 V2000
    8.5287   48.5260   55.6870 C   0  0  0  0  0  0  0  0  0  0  0  0
    9.6800   48.0378   55.0095 O   0  0  0  0  0  0  0  0  0  0  0  0
    9.4609   47.2425   53.9204 C   0  0  0  0  0  0  0  0  0  0  0  0
   10.3578   46.3275   53.3750 C   0  0  0  0  0  0  0  0  0  0  0  0
   10.0020   45.5709   52.2485 C   0  0  0  0  0  0  0  0  0  0  0  0
    8.7520   45.7083   51.6401 C   0  0  0  0  0  0  0  0  0  0  0  0
    8.3421   44.9841   50.5148 N   0  0  0  0  0  0  0  0  0  0  0  0
    7.1973   44.2577   50.1892 C   0  0  0  0  0  0  0  0  0  0  0  0
    6.2483   44.2863   51.1525 N   0  0  0  0  0  0  0  0  0  0  0  0
    5.0909   43.6253   50.9665 C   0  0  0  0  0  0  0  0  0  0  0  0
    4.0997   43.6015   51.9195 O   0  0  0  0  0  0  0  0  0  0  0  0
    4.4794   44.0312   53.2295 C   0  0  0  0  0  0  0  0  0  0  0  0
    3.5878   45.2019   53.6791 C   0  0  0  0  0  0  0  0  0  0  0  0
    3.2751   45.1216   55.1873 C   0  0  0  0  0  0  0  0  0  0  0  0
    2.8746   46.4800   55.7492 C   0  0  0  0  0  0  0  0  0  0  0  0
    4.0064   47.4997   55.6163 C   0  0  0  0  0  0  0  0  0  0  0  0
    4.9363   47.2253   54.4334 C   0  0  0  0  0  0  0  0  0  0  0  0
    4.2013   46.5570   53.2781 C   0  0  0  0  0  0  0  0  0  0  0  0
    4.9319   42.9362   49.7932 C   0  0  0  0  0  0  0  0  0  0  0  0
    3.9469   42.1631   49.2526 N   0  0  0  0  0  0  0  0  0  0  0  0
    4.3864   41.7481   48.0244 C   0  0  0  0  0  0  0  0  0  0  0  0
    5.5906   42.2097   47.7567 N   0  0  0  0  0  0  0  0  0  0  0  0
    5.9381   42.9522   48.8550 C   0  0  0  0  0  0  0  0  0  0  0  0
    7.0922   43.6102   49.0246 N   0  0  0  0  0  0  0  0  0  0  0  0
    7.8610   46.6351   52.2004 C   0  0  0  0  0  0  0  0  0  0  0  0
    8.2103   47.3917   53.3250 C   0  0  0  0  0  0  0  0  0  0  0  0
    7.8124   47.7039   55.8319 H   0  0  0  0  0  0  0  0  0  0  0  0
    8.8238   48.9320   56.6658 H   0  0  0  0  0  0  0  0  0  0  0  0
    8.0594   49.3198   55.0873 H   0  0  0  0  0  0  0  0  0  0  0  0
   11.3508   46.1971   53.8301 H   0  0  0  0  0  0  0  0  0  0  0  0
   10.7246   44.8523   51.8343 H   0  0  0  0  0  0  0  0  0  0  0  0
    8.9777   44.9627   49.7316 H   0  0  0  0  0  0  0  0  0  0  0  0
    4.3650   43.1947   53.9346 H   0  0  0  0  0  0  0  0  0  0  0  0
    5.5280   44.3629   53.2106 H   0  0  0  0  0  0  0  0  0  0  0  0
    2.6262   45.1192   53.1514 H   0  0  0  0  0  0  0  0  0  0  0  0
    2.4486   44.4127   55.3435 H   0  0  0  0  0  0  0  0  0  0  0  0
    4.1833   44.7869   55.7100 H   0  0  0  0  0  0  0  0  0  0  0  0
    1.9957   46.8486   55.1999 H   0  0  0  0  0  0  0  0  0  0  0  0
    2.6462   46.3566   56.8181 H   0  0  0  0  0  0  0  0  0  0  0  0
    3.5628   48.4980   55.4867 H   0  0  0  0  0  0  0  0  0  0  0  0
    4.6147   47.4302   56.5301 H   0  0  0  0  0  0  0  0  0  0  0  0
    5.3575   48.1792   54.0830 H   0  0  0  0  0  0  0  0  0  0  0  0
    5.7297   46.5435   54.7736 H   0  0  0  0  0  0  0  0  0  0  0  0
    3.3947   47.2238   52.9394 H   0  0  0  0  0  0  0  0  0  0  0  0
    4.9325   46.3709   52.4777 H   0  0  0  0  0  0  0  0  0  0  0  0
    3.0600   41.9410   49.6824 H   0  0  0  0  0  0  0  0  0  0  0  0
    3.8053   41.1077   47.3445 H   0  0  0  0  0  0  0  0  0  0  0  0
    6.8679   46.7702   51.7470 H   0  0  0  0  0  0  0  0  0  0  0  0
    7.4905   48.1110   53.7428 H   0  0  0  0  0  0  0  0  0  0  0  0
  1  2  1  0
  2  3  1  0
  3  4  2  0
  4  5  1  0
  5  6  2  0
  6  7  1  0
  7  8  1  0
  8  9  2  0
  9 10  1  0
 10 11  1  0
 11 12  1  0
 12 13  1  0
 13 14  1  0
 14 15  1  0
 15 16  1  0
 16 17  1  0
 17 18  1  0
 10 19  2  0
 19 20  1  0
 20 21  1  0
 21 22  2  0
 22 23  1  0
 23 24  2  0
  6 25  1  0
 25 26  2  0
 26  3  1  0
 24  8  1  0
 18 13  1  0
 23 19  1  0
  1 27  1  0
  1 28  1  0
  1 29  1  0
  4 30  1  0
  5 31  1  0
  7 32  1  0
 12 33  1  0
 12 34  1  0
 13 35  1  0
 14 36  1  0
 14 37  1  0
 15 38  1  0
 15 39  1  0
 16 40  1  0
 16 41  1  0
 17 42  1  0
 17 43  1  0
 18 44  1  0
 18 45  1  0
 20 46  1  0
 21 47  1  0
 25 48  1  0
 26 49  1  0
M  END
>  <meeko>  (55) 
{"is_sidechain": false}

>  <CID>  (55) 
5329560

>  <pose_index>  (55) 
2

>  <docking_score>  (55) 
-8.957

>  <rmsd_to_best_selected>  (55) 
1.734470051996953

>  <MWT>  (55) 
353.42599999999965

>  <TPSA>  (55) 
84.95

>  <logP>  (55) 
4.064200000000002

>  <HBD>  (55) 
2

>  <HBA>  (55) 
6

>  <SMILES>  (55) 
[H]c1c([H])c(N([H])c2nc(OC([H])([H])C3([H])C([H])([H])C([H])([H])C([H])([H])C([H])([H])C3([H])[H])c3c(n2)nc([H])n3[H])c([H])c([H])c1OC([H])([H])[H]

$$$$
5329560_pose8
     RDKit          3D

 49 52  0  0  0  0  0  0  0  0999 V2000
    8.7027   48.6877   55.4674 C   0  0  0  0  0  0  0  0  0  0  0  0
    9.6945   48.5121   54.4629 O   0  0  0  0  0  0  0  0  0  0  0  0
    9.3883   47.6586   53.4402 C   0  0  0  0  0  0  0  0  0  0  0  0
   10.2958   47.0380   52.5879 C   0  0  0  0  0  0  0  0  0  0  0  0
    9.8440   46.1802   51.5735 C   0  0  0  0  0  0  0  0  0  0  0  0
    8.4825   45.9233   51.3854 C   0  0  0  0  0  0  0  0  0  0  0  0
    7.9730   45.0803   50.3914 N   0  0  0  0  0  0  0  0  0  0  0  0
    6.7099   44.5606   50.1120 C   0  0  0  0  0  0  0  0  0  0  0  0
    5.8624   44.6058   51.1650 N   0  0  0  0  0  0  0  0  0  0  0  0
    4.6087   44.1349   51.0309 C   0  0  0  0  0  0  0  0  0  0  0  0
    3.7113   44.1359   52.0727 O   0  0  0  0  0  0  0  0  0  0  0  0
    4.1615   43.5329   53.2879 C   0  0  0  0  0  0  0  0  0  0  0  0
    3.8354   44.4474   54.4829 C   0  0  0  0  0  0  0  0  0  0  0  0
    5.0194   44.5290   55.4659 C   0  0  0  0  0  0  0  0  0  0  0  0
    4.9449   45.7822   56.3293 C   0  0  0  0  0  0  0  0  0  0  0  0
    5.0241   47.0540   55.4827 C   0  0  0  0  0  0  0  0  0  0  0  0
    4.4827   46.8741   54.0637 C   0  0  0  0  0  0  0  0  0  0  0  0
    3.3668   45.8369   54.0114 C   0  0  0  0  0  0  0  0  0  0  0  0
    4.2489   43.6173   49.8152 C   0  0  0  0  0  0  0  0  0  0  0  0
    3.1180   43.0544   49.3012 N   0  0  0  0  0  0  0  0  0  0  0  0
    3.3831   42.7298   47.9982 C   0  0  0  0  0  0  0  0  0  0  0  0
    4.6136   43.0516   47.6577 N   0  0  0  0  0  0  0  0  0  0  0  0
    5.1610   43.6050   48.7854 C   0  0  0  0  0  0  0  0  0  0  0  0
    6.4101   44.0746   48.9032 N   0  0  0  0  0  0  0  0  0  0  0  0
    7.5820   46.5593   52.2526 C   0  0  0  0  0  0  0  0  0  0  0  0
    8.0282   47.4156   53.2660 C   0  0  0  0  0  0  0  0  0  0  0  0
    8.2904   47.7080   55.7508 H   0  0  0  0  0  0  0  0  0  0  0  0
    9.1547   49.1644   56.3497 H   0  0  0  0  0  0  0  0  0  0  0  0
    7.8959   49.3263   55.0784 H   0  0  0  0  0  0  0  0  0  0  0  0
   11.3737   47.2206   52.7100 H   0  0  0  0  0  0  0  0  0  0  0  0
   10.5781   45.6986   50.9108 H   0  0  0  0  0  0  0  0  0  0  0  0
    8.6219   44.7592   49.6898 H   0  0  0  0  0  0  0  0  0  0  0  0
    3.6575   42.5644   53.4223 H   0  0  0  0  0  0  0  0  0  0  0  0
    5.2499   43.3832   53.2346 H   0  0  0  0  0  0  0  0  0  0  0  0
    2.9960   43.9992   55.0348 H   0  0  0  0  0  0  0  0  0  0  0  0
    5.0031   43.6439   56.1188 H   0  0  0  0  0  0  0  0  0  0  0  0
    5.9504   44.5682   54.8813 H   0  0  0  0  0  0  0  0  0  0  0  0
    3.9935   45.7794   56.8814 H   0  0  0  0  0  0  0  0  0  0  0  0
    5.8001   45.7751   57.0210 H   0  0  0  0  0  0  0  0  0  0  0  0
    4.4403   47.8417   55.9814 H   0  0  0  0  0  0  0  0  0  0  0  0
    6.0881   47.3185   55.3931 H   0  0  0  0  0  0  0  0  0  0  0  0
    4.0901   47.8379   53.7075 H   0  0  0  0  0  0  0  0  0  0  0  0
    5.3066   46.5228   53.4252 H   0  0  0  0  0  0  0  0  0  0  0  0
    2.5432   46.1709   54.6594 H   0  0  0  0  0  0  0  0  0  0  0  0
    3.0431   45.7446   52.9641 H   0  0  0  0  0  0  0  0  0  0  0  0
    2.2475   42.9072   49.7935 H   0  0  0  0  0  0  0  0  0  0  0  0
    2.6575   42.2582   47.3191 H   0  0  0  0  0  0  0  0  0  0  0  0
    6.5030   46.3815   52.1340 H   0  0  0  0  0  0  0  0  0  0  0  0
    7.2982   47.9008   53.9306 H   0  0  0  0  0  0  0  0  0  0  0  0
  1  2  1  0
  2  3  1  0
  3  4  2  0
  4  5  1  0
  5  6  2  0
  6  7  1  0
  7  8  1  0
  8  9  2  0
  9 10  1  0
 10 11  1  0
 11 12  1  0
 12 13  1  0
 13 14  1  0
 14 15  1  0
 15 16  1  0
 16 17  1  0
 17 18  1  0
 10 19  2  0
 19 20  1  0
 20 21  1  0
 21 22  2  0
 22 23  1  0
 23 24  2  0
  6 25  1  0
 25 26  2  0
 26  3  1  0
 24  8  1  0
 18 13  1  0
 23 19  1  0
  1 27  1  0
  1 28  1  0
  1 29  1  0
  4 30  1  0
  5 31  1  0
  7 32  1  0
 12 33  1  0
 12 34  1  0
 13 35  1  0
 14 36  1  0
 14 37  1  0
 15 38  1  0
 15 39  1  0
 16 40  1  0
 16 41  1  0
 17 42  1  0
 17 43  1  0
 18 44  1  0
 18 45  1  0
 20 46  1  0
 21 47  1  0
 25 48  1  0
 26 49  1  0
M  END
>  <meeko>  (56) 
{"is_sidechain": false}

>  <CID>  (56) 
5329560

>  <pose_index>  (56) 
8

>  <docking_score>  (56) 
-8.501

>  <rmsd_to_best_selected>  (56) 
1.5727849537174685

>  <MWT>  (56) 
353.42599999999965

>  <TPSA>  (56) 
84.95

>  <logP>  (56) 
4.064200000000002

>  <HBD>  (56) 
2

>  <HBA>  (56) 
6

>  <SMILES>  (56) 
[H]c1c([H])c(N([H])c2nc(OC([H])([H])C3([H])C([H])([H])C([H])([H])C([H])([H])C([H])([H])C3([H])[H])c3c(n2)nc([H])n3[H])c([H])c([H])c1OC([H])([H])[H]

$$$$
5329560_pose9
     RDKit          3D

 49 52  0  0  0  0  0  0  0  0999 V2000
   10.1485   49.3488   54.6862 C   0  0  0  0  0  0  0  0  0  0  0  0
    9.2922   48.2520   54.9810 O   0  0  0  0  0  0  0  0  0  0  0  0
    8.9588   47.4350   53.9383 C   0  0  0  0  0  0  0  0  0  0  0  0
    9.0661   46.0474   53.9136 C   0  0  0  0  0  0  0  0  0  0  0  0
    8.6854   45.3268   52.7706 C   0  0  0  0  0  0  0  0  0  0  0  0
    8.1925   45.9692   51.6313 C   0  0  0  0  0  0  0  0  0  0  0  0
    7.7999   45.3054   50.4643 N   0  0  0  0  0  0  0  0  0  0  0  0
    6.6549   44.6081   50.0794 C   0  0  0  0  0  0  0  0  0  0  0  0
    5.6657   44.6451   51.0019 N   0  0  0  0  0  0  0  0  0  0  0  0
    4.5044   44.0106   50.7570 C   0  0  0  0  0  0  0  0  0  0  0  0
    3.4728   43.9961   51.6660 O   0  0  0  0  0  0  0  0  0  0  0  0
    3.8497   43.8821   53.0407 C   0  0  0  0  0  0  0  0  0  0  0  0
    3.8156   45.2658   53.7128 C   0  0  0  0  0  0  0  0  0  0  0  0
    2.8676   45.2753   54.9287 C   0  0  0  0  0  0  0  0  0  0  0  0
    3.2066   46.4058   55.8935 C   0  0  0  0  0  0  0  0  0  0  0  0
    4.6153   46.2506   56.4695 C   0  0  0  0  0  0  0  0  0  0  0  0
    5.5761   45.5118   55.5363 C   0  0  0  0  0  0  0  0  0  0  0  0
    5.2351   45.7482   54.0703 C   0  0  0  0  0  0  0  0  0  0  0  0
    4.3819   43.3408   49.5685 C   0  0  0  0  0  0  0  0  0  0  0  0
    3.4055   42.5963   48.9754 N   0  0  0  0  0  0  0  0  0  0  0  0
    3.8886   42.1867   47.7620 C   0  0  0  0  0  0  0  0  0  0  0  0
    5.1124   42.6260   47.5528 N   0  0  0  0  0  0  0  0  0  0  0  0
    5.4278   43.3462   48.6754 C   0  0  0  0  0  0  0  0  0  0  0  0
    6.5874   43.9775   48.9030 N   0  0  0  0  0  0  0  0  0  0  0  0
    8.0919   47.3683   51.6730 C   0  0  0  0  0  0  0  0  0  0  0  0
    8.4699   48.0908   52.8109 C   0  0  0  0  0  0  0  0  0  0  0  0
   10.0349   49.6288   53.6285 H   0  0  0  0  0  0  0  0  0  0  0  0
    9.8804   50.2048   55.3229 H   0  0  0  0  0  0  0  0  0  0  0  0
   11.1926   49.0611   54.8793 H   0  0  0  0  0  0  0  0  0  0  0  0
    9.4512   45.5127   54.7944 H   0  0  0  0  0  0  0  0  0  0  0  0
    8.7771   44.2306   52.7716 H   0  0  0  0  0  0  0  0  0  0  0  0
    8.4515   45.3153   49.6948 H   0  0  0  0  0  0  0  0  0  0  0  0
    3.1483   43.2095   53.5560 H   0  0  0  0  0  0  0  0  0  0  0  0
    4.8701   43.4760   53.1025 H   0  0  0  0  0  0  0  0  0  0  0  0
    3.4081   45.9861   52.9882 H   0  0  0  0  0  0  0  0  0  0  0  0
    1.8342   45.4053   54.5749 H   0  0  0  0  0  0  0  0  0  0  0  0
    2.9820   44.3204   55.4626 H   0  0  0  0  0  0  0  0  0  0  0  0
    3.1437   47.3640   55.3570 H   0  0  0  0  0  0  0  0  0  0  0  0
    2.4887   46.3743   56.7264 H   0  0  0  0  0  0  0  0  0  0  0  0
    5.0233   47.2528   56.6675 H   0  0  0  0  0  0  0  0  0  0  0  0
    4.5265   45.6489   57.3861 H   0  0  0  0  0  0  0  0  0  0  0  0
    6.5998   45.8671   55.7254 H   0  0  0  0  0  0  0  0  0  0  0  0
    5.4879   44.4341   55.7383 H   0  0  0  0  0  0  0  0  0  0  0  0
    5.3055   46.8257   53.8604 H   0  0  0  0  0  0  0  0  0  0  0  0
    5.9484   45.1720   53.4626 H   0  0  0  0  0  0  0  0  0  0  0  0
    2.4960   42.3876   49.3637 H   0  0  0  0  0  0  0  0  0  0  0  0
    3.3243   41.5671   47.0495 H   0  0  0  0  0  0  0  0  0  0  0  0
    7.7084   47.9078   50.7945 H   0  0  0  0  0  0  0  0  0  0  0  0
    8.3799   49.1871   52.8147 H   0  0  0  0  0  0  0  0  0  0  0  0
  1  2  1  0
  2  3  1  0
  3  4  2  0
  4  5  1  0
  5  6  2  0
  6  7  1  0
  7  8  1  0
  8  9  2  0
  9 10  1  0
 10 11  1  0
 11 12  1  0
 12 13  1  0
 13 14  1  0
 14 15  1  0
 15 16  1  0
 16 17  1  0
 17 18  1  0
 10 19  2  0
 19 20  1  0
 20 21  1  0
 21 22  2  0
 22 23  1  0
 23 24  2  0
  6 25  1  0
 25 26  2  0
 26  3  1  0
 24  8  1  0
 18 13  1  0
 23 19  1  0
  1 27  1  0
  1 28  1  0
  1 29  1  0
  4 30  1  0
  5 31  1  0
  7 32  1  0
 12 33  1  0
 12 34  1  0
 13 35  1  0
 14 36  1  0
 14 37  1  0
 15 38  1  0
 15 39  1  0
 16 40  1  0
 16 41  1  0
 17 42  1  0
 17 43  1  0
 18 44  1  0
 18 45  1  0
 20 46  1  0
 21 47  1  0
 25 48  1  0
 26 49  1  0
M  END
>  <meeko>  (57) 
{"is_sidechain": false}

>  <CID>  (57) 
5329560

>  <pose_index>  (57) 
9

>  <docking_score>  (57) 
-8.468

>  <rmsd_to_best_selected>  (57) 
1.8764233910050527

>  <MWT>  (57) 
353.42599999999965

>  <TPSA>  (57) 
84.95

>  <logP>  (57) 
4.064200000000002

>  <HBD>  (57) 
2

>  <HBA>  (57) 
6

>  <SMILES>  (57) 
[H]c1c([H])c(N([H])c2nc(OC([H])([H])C3([H])C([H])([H])C([H])([H])C([H])([H])C([H])([H])C3([H])[H])c3c(n2)nc([H])n3[H])c([H])c([H])c1OC([H])([H])[H]

$$$$
5329560_pose10
     RDKit          3D

 49 52  0  0  0  0  0  0  0  0999 V2000
    9.0579   48.2089   56.0829 C   0  0  0  0  0  0  0  0  0  0  0  0
    9.4215   48.6018   54.7652 O   0  0  0  0  0  0  0  0  0  0  0  0
    9.0040   47.7943   53.7457 C   0  0  0  0  0  0  0  0  0  0  0  0
    9.3433   46.4577   53.5637 C   0  0  0  0  0  0  0  0  0  0  0  0
    8.8409   45.7409   52.4663 C   0  0  0  0  0  0  0  0  0  0  0  0
    7.9934   46.3385   51.5283 C   0  0  0  0  0  0  0  0  0  0  0  0
    7.4641   45.6774   50.4158 N   0  0  0  0  0  0  0  0  0  0  0  0
    6.3115   44.9265   50.1871 C   0  0  0  0  0  0  0  0  0  0  0  0
    5.5412   44.7726   51.2887 N   0  0  0  0  0  0  0  0  0  0  0  0
    4.3971   44.0681   51.2074 C   0  0  0  0  0  0  0  0  0  0  0  0
    3.5859   43.8613   52.2984 O   0  0  0  0  0  0  0  0  0  0  0  0
    4.1989   43.2277   53.4244 C   0  0  0  0  0  0  0  0  0  0  0  0
    4.4008   44.2473   54.5583 C   0  0  0  0  0  0  0  0  0  0  0  0
    5.8612   44.7377   54.6188 C   0  0  0  0  0  0  0  0  0  0  0  0
    5.9725   46.0794   55.3325 C   0  0  0  0  0  0  0  0  0  0  0  0
    5.1993   47.1745   54.5963 C   0  0  0  0  0  0  0  0  0  0  0  0
    4.0052   46.6454   53.8001 C   0  0  0  0  0  0  0  0  0  0  0  0
    3.3949   45.4105   54.4501 C   0  0  0  0  0  0  0  0  0  0  0  0
    4.0672   43.5259   49.9940 C   0  0  0  0  0  0  0  0  0  0  0  0
    3.0370   42.7664   49.5227 N   0  0  0  0  0  0  0  0  0  0  0  0
    3.2758   42.5392   48.1942 C   0  0  0  0  0  0  0  0  0  0  0  0
    4.3959   43.1065   47.7976 N   0  0  0  0  0  0  0  0  0  0  0  0
    4.8971   43.7236   48.9135 C   0  0  0  0  0  0  0  0  0  0  0  0
    6.0346   44.4260   48.9783 N   0  0  0  0  0  0  0  0  0  0  0  0
    7.6629   47.6873   51.7262 C   0  0  0  0  0  0  0  0  0  0  0  0
    8.1616   48.4055   52.8199 C   0  0  0  0  0  0  0  0  0  0  0  0
    8.4589   47.2873   56.0386 H   0  0  0  0  0  0  0  0  0  0  0  0
    9.9667   48.0274   56.6754 H   0  0  0  0  0  0  0  0  0  0  0  0
    8.4667   49.0081   56.5539 H   0  0  0  0  0  0  0  0  0  0  0  0
   10.0091   45.9596   54.2838 H   0  0  0  0  0  0  0  0  0  0  0  0
    9.1204   44.6843   52.3414 H   0  0  0  0  0  0  0  0  0  0  0  0
    7.9912   45.7368   49.5580 H   0  0  0  0  0  0  0  0  0  0  0  0
    3.5524   42.4116   53.7795 H   0  0  0  0  0  0  0  0  0  0  0  0
    5.1773   42.8253   53.1230 H   0  0  0  0  0  0  0  0  0  0  0  0
    4.1979   43.7384   55.5122 H   0  0  0  0  0  0  0  0  0  0  0  0
    6.4654   43.9944   55.1595 H   0  0  0  0  0  0  0  0  0  0  0  0
    6.2248   44.8646   53.5884 H   0  0  0  0  0  0  0  0  0  0  0  0
    5.5660   45.9776   56.3495 H   0  0  0  0  0  0  0  0  0  0  0  0
    7.0338   46.3671   55.3607 H   0  0  0  0  0  0  0  0  0  0  0  0
    4.8307   47.8991   55.3372 H   0  0  0  0  0  0  0  0  0  0  0  0
    5.8926   47.6324   53.8754 H   0  0  0  0  0  0  0  0  0  0  0  0
    3.2391   47.4326   53.7419 H   0  0  0  0  0  0  0  0  0  0  0  0
    4.3599   46.3644   52.7975 H   0  0  0  0  0  0  0  0  0  0  0  0
    3.0515   45.6761   55.4608 H   0  0  0  0  0  0  0  0  0  0  0  0
    2.5604   45.0751   53.8168 H   0  0  0  0  0  0  0  0  0  0  0  0
    2.2470   42.4353   50.0585 H   0  0  0  0  0  0  0  0  0  0  0  0
    2.6136   41.9546   47.5387 H   0  0  0  0  0  0  0  0  0  0  0  0
    6.9989   48.1907   51.0080 H   0  0  0  0  0  0  0  0  0  0  0  0
    7.8856   49.4624   52.9492 H   0  0  0  0  0  0  0  0  0  0  0  0
  1  2  1  0
  2  3  1  0
  3  4  2  0
  4  5  1  0
  5  6  2  0
  6  7  1  0
  7  8  1  0
  8  9  2  0
  9 10  1  0
 10 11  1  0
 11 12  1  0
 12 13  1  0
 13 14  1  0
 14 15  1  0
 15 16  1  0
 16 17  1  0
 17 18  1  0
 10 19  2  0
 19 20  1  0
 20 21  1  0
 21 22  2  0
 22 23  1  0
 23 24  2  0
  6 25  1  0
 25 26  2  0
 26  3  1  0
 24  8  1  0
 18 13  1  0
 23 19  1  0
  1 27  1  0
  1 28  1  0
  1 29  1  0
  4 30  1  0
  5 31  1  0
  7 32  1  0
 12 33  1  0
 12 34  1  0
 13 35  1  0
 14 36  1  0
 14 37  1  0
 15 38  1  0
 15 39  1  0
 16 40  1  0
 16 41  1  0
 17 42  1  0
 17 43  1  0
 18 44  1  0
 18 45  1  0
 20 46  1  0
 21 47  1  0
 25 48  1  0
 26 49  1  0
M  END
>  <meeko>  (58) 
{"is_sidechain": false}

>  <CID>  (58) 
5329560

>  <pose_index>  (58) 
10

>  <docking_score>  (58) 
-8.428

>  <rmsd_to_best_selected>  (58) 
1.7827669445078396

>  <MWT>  (58) 
353.42599999999965

>  <TPSA>  (58) 
84.95

>  <logP>  (58) 
4.064200000000002

>  <HBD>  (58) 
2

>  <HBA>  (58) 
6

>  <SMILES>  (58) 
[H]c1c([H])c(N([H])c2nc(OC([H])([H])C3([H])C([H])([H])C([H])([H])C([H])([H])C([H])([H])C3([H])[H])c3c(n2)nc([H])n3[H])c([H])c([H])c1OC([H])([H])[H]

$$$$
5329565_pose1
     RDKit          3D

 50 53  0  0  0  0  0  0  0  0999 V2000
   -0.1240   43.1850   51.5230 C   0  0  0  0  0  0  0  0  0  0  0  0
   -0.6120   43.7870   53.1580 S   0  0  0  0  0  0  0  0  0  0  0  0
   -0.5580   42.6210   54.1000 O   0  0  0  0  0  0  0  0  0  0  0  0
    0.8800   44.7560   53.4830 C   0  0  0  0  0  0  0  0  0  0  0  0
    1.6540   44.5270   54.6210 C   0  0  0  0  0  0  0  0  0  0  0  0
    2.8090   45.2840   54.8540 C   0  0  0  0  0  0  0  0  0  0  0  0
    3.2090   46.2930   53.9740 C   0  0  0  0  0  0  0  0  0  0  0  0
    4.3720   47.0530   54.1360 N   0  0  0  0  0  0  0  0  0  0  0  0
    5.7020   46.8820   53.7500 C   0  0  0  0  0  0  0  0  0  0  0  0
    6.0100   46.3640   52.5400 N   0  0  0  0  0  0  0  0  0  0  0  0
    7.3020   46.2430   52.1810 C   0  0  0  0  0  0  0  0  0  0  0  0
    7.6740   45.7330   50.9580 O   0  0  0  0  0  0  0  0  0  0  0  0
    6.5940   45.2310   50.1630 C   0  0  0  0  0  0  0  0  0  0  0  0
    6.2490   43.7770   50.5310 C   0  0  0  0  0  0  0  0  0  0  0  0
    4.7750   43.6660   50.9440 C   0  0  0  0  0  0  0  0  0  0  0  0
    4.3910   42.2280   51.2820 C   0  0  0  0  0  0  0  0  0  0  0  0
    4.7140   41.2750   50.1370 C   0  0  0  0  0  0  0  0  0  0  0  0
    6.1730   41.3810   49.7090 C   0  0  0  0  0  0  0  0  0  0  0  0
    6.5620   42.8190   49.3730 C   0  0  0  0  0  0  0  0  0  0  0  0
    8.2560   46.6470   53.0750 C   0  0  0  0  0  0  0  0  0  0  0  0
    9.6200   46.6770   53.0880 N   0  0  0  0  0  0  0  0  0  0  0  0
   10.0030   47.2090   54.2900 C   0  0  0  0  0  0  0  0  0  0  0  0
    8.9650   47.5180   55.0380 N   0  0  0  0  0  0  0  0  0  0  0  0
    7.8710   47.1680   54.2890 C   0  0  0  0  0  0  0  0  0  0  0  0
    6.5890   47.3070   54.6590 N   0  0  0  0  0  0  0  0  0  0  0  0
    2.4230   46.5060   52.8290 C   0  0  0  0  0  0  0  0  0  0  0  0
    1.2690   45.7530   52.5860 C   0  0  0  0  0  0  0  0  0  0  0  0
    0.5650   42.3350   51.6359 H   0  0  0  0  0  0  0  0  0  0  0  0
   -1.0179   42.8614   50.9696 H   0  0  0  0  0  0  0  0  0  0  0  0
    0.3775   43.9926   50.9696 H   0  0  0  0  0  0  0  0  0  0  0  0
    1.3557   43.7484   55.3385 H   0  0  0  0  0  0  0  0  0  0  0  0
    3.4145   45.0798   55.7493 H   0  0  0  0  0  0  0  0  0  0  0  0
    4.3160   47.8450   54.7600 H   0  0  0  0  0  0  0  0  0  0  0  0
    5.7072   45.8609   50.3267 H   0  0  0  0  0  0  0  0  0  0  0  0
    6.9030   45.2551   49.1076 H   0  0  0  0  0  0  0  0  0  0  0  0
    6.8769   43.4840   51.3854 H   0  0  0  0  0  0  0  0  0  0  0  0
    4.6037   44.2980   51.8279 H   0  0  0  0  0  0  0  0  0  0  0  0
    4.1555   43.9967   50.0974 H   0  0  0  0  0  0  0  0  0  0  0  0
    4.9467   41.9115   52.1770 H   0  0  0  0  0  0  0  0  0  0  0  0
    3.3060   42.1953   51.4601 H   0  0  0  0  0  0  0  0  0  0  0  0
    4.5125   40.2442   50.4637 H   0  0  0  0  0  0  0  0  0  0  0  0
    4.0841   41.5466   49.2771 H   0  0  0  0  0  0  0  0  0  0  0  0
    6.8118   41.0217   50.5293 H   0  0  0  0  0  0  0  0  0  0  0  0
    6.3096   40.7695   48.8049 H   0  0  0  0  0  0  0  0  0  0  0  0
    7.6408   42.8563   49.1611 H   0  0  0  0  0  0  0  0  0  0  0  0
    5.9771   43.1368   48.4973 H   0  0  0  0  0  0  0  0  0  0  0  0
   10.2290   46.3640   52.3440 H   0  0  0  0  0  0  0  0  0  0  0  0
   11.0496   47.3597   54.5933 H   0  0  0  0  0  0  0  0  0  0  0  0
    2.7213   47.2814   52.1081 H   0  0  0  0  0  0  0  0  0  0  0  0
    0.6667   45.9469   51.6862 H   0  0  0  0  0  0  0  0  0  0  0  0
  1  2  1  0
  2  3  2  0
  2  4  1  0
  4  5  2  0
  5  6  1  0
  6  7  2  0
  7  8  1  0
  8  9  1  0
  9 10  2  0
 10 11  1  0
 11 12  1  0
 12 13  1  0
 13 14  1  0
 14 15  1  0
 15 16  1  0
 16 17  1  0
 17 18  1  0
 18 19  1  0
 11 20  2  0
 20 21  1  0
 21 22  1  0
 22 23  2  0
 23 24  1  0
 24 25  2  0
  7 26  1  0
 26 27  2  0
 27  4  1  0
 25  9  1  0
 19 14  1  0
 24 20  1  0
  1 28  1  0
  1 29  1  0
  1 30  1  0
  5 31  1  0
  6 32  1  0
  8 33  1  0
 13 34  1  0
 13 35  1  0
 14 36  1  0
 15 37  1  0
 15 38  1  0
 16 39  1  0
 16 40  1  0
 17 41  1  0
 17 42  1  0
 18 43  1  0
 18 44  1  0
 19 45  1  0
 19 46  1  0
 21 47  1  0
 22 48  1  0
 26 49  1  0
 27 50  1  0
M  END
>  <meeko>  (59) 
{"is_sidechain": false}

>  <CID>  (59) 
5329565

>  <pose_index>  (59) 
1

>  <docking_score>  (59) 
-9.365

>  <rmsd_to_best_selected>  (59) 
0.0

>  <MWT>  (59) 
385.4929999999997

>  <TPSA>  (59) 
92.78999999999999

>  <logP>  (59) 
3.793000000000002

>  <HBD>  (59) 
2

>  <HBA>  (59) 
6

>  <SMILES>  (59) 
[H]c1c([H])c(S(=O)C([H])([H])[H])c([H])c([H])c1N([H])c1nc(OC([H])([H])C2([H])C([H])([H])C([H])([H])C([H])([H])C([H])([H])C2([H])[H])c2c(n1)nc([H])n2[H]

$$$$
5329565_pose4
     RDKit          3D

 50 53  0  0  0  0  0  0  0  0999 V2000
   -1.4073   44.7503   53.0253 C   0  0  0  0  0  0  0  0  0  0  0  0
   -0.3292   43.2971   52.9666 S   0  0  0  0  0  0  0  0  0  0  0  0
   -0.1343   42.9417   51.5226 O   0  0  0  0  0  0  0  0  0  0  0  0
    1.1885   44.1348   53.4807 C   0  0  0  0  0  0  0  0  0  0  0  0
    2.2933   43.4110   53.9299 C   0  0  0  0  0  0  0  0  0  0  0  0
    3.4629   44.0762   54.3187 C   0  0  0  0  0  0  0  0  0  0  0  0
    3.5520   45.4704   54.2884 C   0  0  0  0  0  0  0  0  0  0  0  0
    4.7052   46.1859   54.6286 N   0  0  0  0  0  0  0  0  0  0  0  0
    5.9239   46.4204   53.9896 C   0  0  0  0  0  0  0  0  0  0  0  0
    6.1872   45.8733   52.7810 N   0  0  0  0  0  0  0  0  0  0  0  0
    7.3575   46.1455   52.1734 C   0  0  0  0  0  0  0  0  0  0  0  0
    7.6749   45.6268   50.9378 O   0  0  0  0  0  0  0  0  0  0  0  0
    7.6368   44.1971   50.8603 C   0  0  0  0  0  0  0  0  0  0  0  0
    6.2780   43.6958   50.3385 C   0  0  0  0  0  0  0  0  0  0  0  0
    6.4660   42.8913   49.0453 C   0  0  0  0  0  0  0  0  0  0  0  0
    5.1396   42.3492   48.5204 C   0  0  0  0  0  0  0  0  0  0  0  0
    4.4096   41.5269   49.5771 C   0  0  0  0  0  0  0  0  0  0  0  0
    4.2231   42.3095   50.8715 C   0  0  0  0  0  0  0  0  0  0  0  0
    5.5488   42.8554   51.3981 C   0  0  0  0  0  0  0  0  0  0  0  0
    8.2408   46.9659   52.8205 C   0  0  0  0  0  0  0  0  0  0  0  0
    9.4857   47.4540   52.5495 N   0  0  0  0  0  0  0  0  0  0  0  0
    9.8504   48.2439   53.6059 C   0  0  0  0  0  0  0  0  0  0  0  0
    8.9134   48.2865   54.5286 N   0  0  0  0  0  0  0  0  0  0  0  0
    7.9063   47.4904   54.0473 C   0  0  0  0  0  0  0  0  0  0  0  0
    6.7407   47.2401   54.6633 N   0  0  0  0  0  0  0  0  0  0  0  0
    2.4340   46.1835   53.8270 C   0  0  0  0  0  0  0  0  0  0  0  0
    1.2620   45.5277   53.4318 C   0  0  0  0  0  0  0  0  0  0  0  0
   -0.8065   45.6437   53.2508 H   0  0  0  0  0  0  0  0  0  0  0  0
   -1.9036   44.8782   52.0520 H   0  0  0  0  0  0  0  0  0  0  0  0
   -2.1668   44.6119   53.8089 H   0  0  0  0  0  0  0  0  0  0  0  0
    2.2457   42.3131   53.9788 H   0  0  0  0  0  0  0  0  0  0  0  0
    4.3298   43.4887   54.6552 H   0  0  0  0  0  0  0  0  0  0  0  0
    4.7690   46.5238   55.5780 H   0  0  0  0  0  0  0  0  0  0  0  0
    8.4295   43.8550   50.1788 H   0  0  0  0  0  0  0  0  0  0  0  0
    7.7882   43.7928   51.8720 H   0  0  0  0  0  0  0  0  0  0  0  0
    5.6529   44.5740   50.1196 H   0  0  0  0  0  0  0  0  0  0  0  0
    6.9119   43.5445   48.2807 H   0  0  0  0  0  0  0  0  0  0  0  0
    7.1230   42.0368   49.2652 H   0  0  0  0  0  0  0  0  0  0  0  0
    4.5017   43.1944   48.2227 H   0  0  0  0  0  0  0  0  0  0  0  0
    5.3518   41.6946   47.6622 H   0  0  0  0  0  0  0  0  0  0  0  0
    3.4212   41.2422   49.1872 H   0  0  0  0  0  0  0  0  0  0  0  0
    5.0172   40.6372   49.7991 H   0  0  0  0  0  0  0  0  0  0  0  0
    3.5403   43.1513   50.6838 H   0  0  0  0  0  0  0  0  0  0  0  0
    3.8088   41.6268   51.6281 H   0  0  0  0  0  0  0  0  0  0  0  0
    5.3507   43.4850   52.2781 H   0  0  0  0  0  0  0  0  0  0  0  0
    6.1911   42.0019   51.6607 H   0  0  0  0  0  0  0  0  0  0  0  0
   10.0316   47.2639   51.7189 H   0  0  0  0  0  0  0  0  0  0  0  0
   10.8096   48.7778   53.6751 H   0  0  0  0  0  0  0  0  0  0  0  0
    2.4799   47.2813   53.7750 H   0  0  0  0  0  0  0  0  0  0  0  0
    0.3975   46.1112   53.0821 H   0  0  0  0  0  0  0  0  0  0  0  0
  1  2  1  0
  2  3  2  0
  2  4  1  0
  4  5  2  0
  5  6  1  0
  6  7  2  0
  7  8  1  0
  8  9  1  0
  9 10  2  0
 10 11  1  0
 11 12  1  0
 12 13  1  0
 13 14  1  0
 14 15  1  0
 15 16  1  0
 16 17  1  0
 17 18  1  0
 18 19  1  0
 11 20  2  0
 20 21  1  0
 21 22  1  0
 22 23  2  0
 23 24  1  0
 24 25  2  0
  7 26  1  0
 26 27  2  0
 27  4  1  0
 25  9  1  0
 19 14  1  0
 24 20  1  0
  1 28  1  0
  1 29  1  0
  1 30  1  0
  5 31  1  0
  6 32  1  0
  8 33  1  0
 13 34  1  0
 13 35  1  0
 14 36  1  0
 15 37  1  0
 15 38  1  0
 16 39  1  0
 16 40  1  0
 17 41  1  0
 17 42  1  0
 18 43  1  0
 18 44  1  0
 19 45  1  0
 19 46  1  0
 21 47  1  0
 22 48  1  0
 26 49  1  0
 27 50  1  0
M  END
>  <meeko>  (60) 
{"is_sidechain": false}

>  <CID>  (60) 
5329565

>  <pose_index>  (60) 
4

>  <docking_score>  (60) 
-8.872

>  <rmsd_to_best_selected>  (60) 
1.6157125315382477

>  <MWT>  (60) 
385.4929999999997

>  <TPSA>  (60) 
92.78999999999999

>  <logP>  (60) 
3.793000000000002

>  <HBD>  (60) 
2

>  <HBA>  (60) 
6

>  <SMILES>  (60) 
[H]c1c([H])c(S(=O)C([H])([H])[H])c([H])c([H])c1N([H])c1nc(OC([H])([H])C2([H])C([H])([H])C([H])([H])C([H])([H])C([H])([H])C2([H])[H])c2c(n1)nc([H])n2[H]

$$$$
5329565_pose7
     RDKit          3D

 50 53  0  0  0  0  0  0  0  0999 V2000
   -1.2586   43.8407   52.9222 C   0  0  0  0  0  0  0  0  0  0  0  0
    0.0952   42.7802   53.4884 S   0  0  0  0  0  0  0  0  0  0  0  0
    0.4571   41.8708   52.3525 O   0  0  0  0  0  0  0  0  0  0  0  0
    1.3708   44.0630   53.5238 C   0  0  0  0  0  0  0  0  0  0  0  0
    2.3866   44.0418   54.4788 C   0  0  0  0  0  0  0  0  0  0  0  0
    3.3693   45.0402   54.4878 C   0  0  0  0  0  0  0  0  0  0  0  0
    3.3515   46.0871   53.5628 C   0  0  0  0  0  0  0  0  0  0  0  0
    4.3259   47.0880   53.5015 N   0  0  0  0  0  0  0  0  0  0  0  0
    5.6631   47.1155   53.1024 C   0  0  0  0  0  0  0  0  0  0  0  0
    6.1628   46.1565   52.2896 N   0  0  0  0  0  0  0  0  0  0  0  0
    7.4473   46.2280   51.8938 C   0  0  0  0  0  0  0  0  0  0  0  0
    8.0051   45.2864   51.0585 O   0  0  0  0  0  0  0  0  0  0  0  0
    7.7347   43.9274   51.4200 C   0  0  0  0  0  0  0  0  0  0  0  0
    6.3975   43.4419   50.8326 C   0  0  0  0  0  0  0  0  0  0  0  0
    6.6395   42.3544   49.7780 C   0  0  0  0  0  0  0  0  0  0  0  0
    5.3294   41.8261   49.2006 C   0  0  0  0  0  0  0  0  0  0  0  0
    4.3906   41.3297   50.2961 C   0  0  0  0  0  0  0  0  0  0  0  0
    4.1474   42.3978   51.3564 C   0  0  0  0  0  0  0  0  0  0  0  0
    5.4562   42.9299   51.9343 C   0  0  0  0  0  0  0  0  0  0  0  0
    8.1998   47.2764   52.3464 C   0  0  0  0  0  0  0  0  0  0  0  0
    9.4932   47.6813   52.1837 N   0  0  0  0  0  0  0  0  0  0  0  0
    9.6502   48.8363   52.9016 C   0  0  0  0  0  0  0  0  0  0  0  0
    8.5356   49.1873   53.5083 N   0  0  0  0  0  0  0  0  0  0  0  0
    7.6269   48.2187   53.1689 C   0  0  0  0  0  0  0  0  0  0  0  0
    6.3453   48.1708   53.5644 N   0  0  0  0  0  0  0  0  0  0  0  0
    2.3261   46.0897   52.6038 C   0  0  0  0  0  0  0  0  0  0  0  0
    1.3422   45.0948   52.5838 C   0  0  0  0  0  0  0  0  0  0  0  0
   -0.9627   44.8958   53.0184 H   0  0  0  0  0  0  0  0  0  0  0  0
   -1.4831   43.6175   51.8687 H   0  0  0  0  0  0  0  0  0  0  0  0
   -2.1524   43.6531   53.5353 H   0  0  0  0  0  0  0  0  0  0  0  0
    2.4165   43.2375   55.2285 H   0  0  0  0  0  0  0  0  0  0  0  0
    4.1718   44.9990   55.2391 H   0  0  0  0  0  0  0  0  0  0  0  0
    4.1017   47.9704   53.9385 H   0  0  0  0  0  0  0  0  0  0  0  0
    8.5451   43.2884   51.0392 H   0  0  0  0  0  0  0  0  0  0  0  0
    7.6712   43.8684   52.5165 H   0  0  0  0  0  0  0  0  0  0  0  0
    5.9088   44.2996   50.3473 H   0  0  0  0  0  0  0  0  0  0  0  0
    7.2438   42.7773   48.9620 H   0  0  0  0  0  0  0  0  0  0  0  0
    7.1626   41.5170   50.2630 H   0  0  0  0  0  0  0  0  0  0  0  0
    4.8327   42.6351   48.6448 H   0  0  0  0  0  0  0  0  0  0  0  0
    5.5627   40.9792   48.5386 H   0  0  0  0  0  0  0  0  0  0  0  0
    3.4279   41.0524   49.8419 H   0  0  0  0  0  0  0  0  0  0  0  0
    4.8604   40.4629   50.7837 H   0  0  0  0  0  0  0  0  0  0  0  0
    3.5937   43.2322   50.9011 H   0  0  0  0  0  0  0  0  0  0  0  0
    3.5717   41.9422   52.1756 H   0  0  0  0  0  0  0  0  0  0  0  0
    5.2313   43.7571   52.6237 H   0  0  0  0  0  0  0  0  0  0  0  0
    5.9597   42.1049   52.4594 H   0  0  0  0  0  0  0  0  0  0  0  0
   10.1981   47.2112   51.6325 H   0  0  0  0  0  0  0  0  0  0  0  0
   10.5917   49.4017   52.9639 H   0  0  0  0  0  0  0  0  0  0  0  0
    2.2955   46.8915   51.8515 H   0  0  0  0  0  0  0  0  0  0  0  0
    0.5451   45.1258   51.8264 H   0  0  0  0  0  0  0  0  0  0  0  0
  1  2  1  0
  2  3  2  0
  2  4  1  0
  4  5  2  0
  5  6  1  0
  6  7  2  0
  7  8  1  0
  8  9  1  0
  9 10  2  0
 10 11  1  0
 11 12  1  0
 12 13  1  0
 13 14  1  0
 14 15  1  0
 15 16  1  0
 16 17  1  0
 17 18  1  0
 18 19  1  0
 11 20  2  0
 20 21  1  0
 21 22  1  0
 22 23  2  0
 23 24  1  0
 24 25  2  0
  7 26  1  0
 26 27  2  0
 27  4  1  0
 25  9  1  0
 19 14  1  0
 24 20  1  0
  1 28  1  0
  1 29  1  0
  1 30  1  0
  5 31  1  0
  6 32  1  0
  8 33  1  0
 13 34  1  0
 13 35  1  0
 14 36  1  0
 15 37  1  0
 15 38  1  0
 16 39  1  0
 16 40  1  0
 17 41  1  0
 17 42  1  0
 18 43  1  0
 18 44  1  0
 19 45  1  0
 19 46  1  0
 21 47  1  0
 22 48  1  0
 26 49  1  0
 27 50  1  0
M  END
>  <meeko>  (61) 
{"is_sidechain": false}

>  <CID>  (61) 
5329565

>  <pose_index>  (61) 
7

>  <docking_score>  (61) 
-8.523

>  <rmsd_to_best_selected>  (61) 
1.5414454476767911

>  <MWT>  (61) 
385.4929999999997

>  <TPSA>  (61) 
92.78999999999999

>  <logP>  (61) 
3.793000000000002

>  <HBD>  (61) 
2

>  <HBA>  (61) 
6

>  <SMILES>  (61) 
[H]c1c([H])c(S(=O)C([H])([H])[H])c([H])c([H])c1N([H])c1nc(OC([H])([H])C2([H])C([H])([H])C([H])([H])C([H])([H])C([H])([H])C2([H])[H])c2c(n1)nc([H])n2[H]

$$$$
5329565_pose8
     RDKit          3D

 50 53  0  0  0  0  0  0  0  0999 V2000
   -1.4898   44.1388   52.8474 C   0  0  0  0  0  0  0  0  0  0  0  0
   -0.1893   43.0365   53.4568 S   0  0  0  0  0  0  0  0  0  0  0  0
    0.1468   42.0843   52.3483 O   0  0  0  0  0  0  0  0  0  0  0  0
    1.1389   44.2646   53.4764 C   0  0  0  0  0  0  0  0  0  0  0  0
    0.9347   45.5542   52.9871 C   0  0  0  0  0  0  0  0  0  0  0  0
    1.9729   46.4936   53.0144 C   0  0  0  0  0  0  0  0  0  0  0  0
    3.2374   46.1674   53.5117 C   0  0  0  0  0  0  0  0  0  0  0  0
    4.2985   47.0742   53.5991 N   0  0  0  0  0  0  0  0  0  0  0  0
    5.6319   47.0476   53.1857 C   0  0  0  0  0  0  0  0  0  0  0  0
    6.0111   46.3093   52.1192 N   0  0  0  0  0  0  0  0  0  0  0  0
    7.2972   46.3308   51.7230 C   0  0  0  0  0  0  0  0  0  0  0  0
    7.7374   45.6074   50.6371 O   0  0  0  0  0  0  0  0  0  0  0  0
    6.7211   44.8556   49.9642 C   0  0  0  0  0  0  0  0  0  0  0  0
    6.4841   43.4946   50.6434 C   0  0  0  0  0  0  0  0  0  0  0  0
    5.0515   43.4108   51.1854 C   0  0  0  0  0  0  0  0  0  0  0  0
    4.7717   42.0572   51.8341 C   0  0  0  0  0  0  0  0  0  0  0  0
    5.0657   40.9043   50.8811 C   0  0  0  0  0  0  0  0  0  0  0  0
    6.4837   40.9795   50.3255 C   0  0  0  0  0  0  0  0  0  0  0  0
    6.7676   42.3326   49.6782 C   0  0  0  0  0  0  0  0  0  0  0  0
    8.1741   47.1017   52.4352 C   0  0  0  0  0  0  0  0  0  0  0  0
    9.5098   47.3724   52.3576 N   0  0  0  0  0  0  0  0  0  0  0  0
    9.8070   48.2422   53.3721 C   0  0  0  0  0  0  0  0  0  0  0  0
    8.7417   48.5403   54.0858 N   0  0  0  0  0  0  0  0  0  0  0  0
    7.7198   47.8315   53.5096 C   0  0  0  0  0  0  0  0  0  0  0  0
    6.4395   47.8316   53.9121 N   0  0  0  0  0  0  0  0  0  0  0  0
    3.4250   44.8668   54.0082 C   0  0  0  0  0  0  0  0  0  0  0  0
    2.3919   43.9220   53.9884 C   0  0  0  0  0  0  0  0  0  0  0  0
   -1.1974   45.1842   53.0253 H   0  0  0  0  0  0  0  0  0  0  0  0
   -1.6325   43.9763   51.7689 H   0  0  0  0  0  0  0  0  0  0  0  0
   -2.4295   43.9255   53.3779 H   0  0  0  0  0  0  0  0  0  0  0  0
   -0.0468   45.8351   52.5776 H   0  0  0  0  0  0  0  0  0  0  0  0
    1.7890   47.5101   52.6362 H   0  0  0  0  0  0  0  0  0  0  0  0
    4.1569   47.8873   54.1809 H   0  0  0  0  0  0  0  0  0  0  0  0
    5.7832   45.4301   49.9779 H   0  0  0  0  0  0  0  0  0  0  0  0
    7.0532   44.6731   48.9315 H   0  0  0  0  0  0  0  0  0  0  0  0
    7.1854   43.4081   51.4864 H   0  0  0  0  0  0  0  0  0  0  0  0
    4.9074   44.2022   51.9356 H   0  0  0  0  0  0  0  0  0  0  0  0
    4.3575   43.5367   50.3413 H   0  0  0  0  0  0  0  0  0  0  0  0
    5.4051   41.9520   52.7272 H   0  0  0  0  0  0  0  0  0  0  0  0
    3.7052   42.0185   52.1007 H   0  0  0  0  0  0  0  0  0  0  0  0
    4.9449   39.9545   51.4226 H   0  0  0  0  0  0  0  0  0  0  0  0
    4.3630   40.9691   50.0373 H   0  0  0  0  0  0  0  0  0  0  0  0
    7.1972   40.8214   51.1477 H   0  0  0  0  0  0  0  0  0  0  0  0
    6.5907   40.2023   49.5545 H   0  0  0  0  0  0  0  0  0  0  0  0
    7.8250   42.3690   49.3772 H   0  0  0  0  0  0  0  0  0  0  0  0
    6.1058   42.4414   48.8064 H   0  0  0  0  0  0  0  0  0  0  0  0
   10.1543   46.9964   51.6752 H   0  0  0  0  0  0  0  0  0  0  0  0
   10.8127   48.6429   53.5670 H   0  0  0  0  0  0  0  0  0  0  0  0
    4.4045   44.5846   54.4215 H   0  0  0  0  0  0  0  0  0  0  0  0
    2.5677   42.9081   54.3769 H   0  0  0  0  0  0  0  0  0  0  0  0
  1  2  1  0
  2  3  2  0
  2  4  1  0
  4  5  2  0
  5  6  1  0
  6  7  2  0
  7  8  1  0
  8  9  1  0
  9 10  2  0
 10 11  1  0
 11 12  1  0
 12 13  1  0
 13 14  1  0
 14 15  1  0
 15 16  1  0
 16 17  1  0
 17 18  1  0
 18 19  1  0
 11 20  2  0
 20 21  1  0
 21 22  1  0
 22 23  2  0
 23 24  1  0
 24 25  2  0
  7 26  1  0
 26 27  2  0
 27  4  1  0
 25  9  1  0
 19 14  1  0
 24 20  1  0
  1 28  1  0
  1 29  1  0
  1 30  1  0
  5 31  1  0
  6 32  1  0
  8 33  1  0
 13 34  1  0
 13 35  1  0
 14 36  1  0
 15 37  1  0
 15 38  1  0
 16 39  1  0
 16 40  1  0
 17 41  1  0
 17 42  1  0
 18 43  1  0
 18 44  1  0
 19 45  1  0
 19 46  1  0
 21 47  1  0
 22 48  1  0
 26 49  1  0
 27 50  1  0
M  END
>  <meeko>  (62) 
{"is_sidechain": false}

>  <CID>  (62) 
5329565

>  <pose_index>  (62) 
8

>  <docking_score>  (62) 
-8.441

>  <rmsd_to_best_selected>  (62) 
1.03197919610945

>  <MWT>  (62) 
385.4929999999997

>  <TPSA>  (62) 
92.78999999999999

>  <logP>  (62) 
3.793000000000002

>  <HBD>  (62) 
2

>  <HBA>  (62) 
6

>  <SMILES>  (62) 
[H]c1c([H])c(S(=O)C([H])([H])[H])c([H])c([H])c1N([H])c1nc(OC([H])([H])C2([H])C([H])([H])C([H])([H])C([H])([H])C([H])([H])C2([H])[H])c2c(n1)nc([H])n2[H]

$$$$
5329565_pose9
     RDKit          3D

 50 53  0  0  0  0  0  0  0  0999 V2000
   -1.2211   43.6149   52.5604 C   0  0  0  0  0  0  0  0  0  0  0  0
    0.0899   42.5987   53.2853 S   0  0  0  0  0  0  0  0  0  0  0  0
    0.5230   41.6138   52.2396 O   0  0  0  0  0  0  0  0  0  0  0  0
    1.3645   43.8831   53.3149 C   0  0  0  0  0  0  0  0  0  0  0  0
    2.3397   43.9064   54.3114 C   0  0  0  0  0  0  0  0  0  0  0  0
    3.3213   44.9041   54.3164 C   0  0  0  0  0  0  0  0  0  0  0  0
    3.3437   45.9083   53.3441 C   0  0  0  0  0  0  0  0  0  0  0  0
    4.3214   46.9064   53.2778 N   0  0  0  0  0  0  0  0  0  0  0  0
    5.6547   46.9307   52.8667 C   0  0  0  0  0  0  0  0  0  0  0  0
    6.1813   45.9013   52.1655 N   0  0  0  0  0  0  0  0  0  0  0  0
    7.4609   45.9684   51.7524 C   0  0  0  0  0  0  0  0  0  0  0  0
    8.0459   44.9550   51.0260 O   0  0  0  0  0  0  0  0  0  0  0  0
    8.0419   43.6758   51.6685 C   0  0  0  0  0  0  0  0  0  0  0  0
    6.8167   42.8406   51.2566 C   0  0  0  0  0  0  0  0  0  0  0  0
    5.7876   42.8037   52.3947 C   0  0  0  0  0  0  0  0  0  0  0  0
    4.5430   42.0115   52.0046 C   0  0  0  0  0  0  0  0  0  0  0  0
    3.9190   42.5397   50.7171 C   0  0  0  0  0  0  0  0  0  0  0  0
    4.9325   42.5902   49.5793 C   0  0  0  0  0  0  0  0  0  0  0  0
    6.1809   43.3803   49.9666 C   0  0  0  0  0  0  0  0  0  0  0  0
    8.1807   47.0863   52.0748 C   0  0  0  0  0  0  0  0  0  0  0  0
    9.4590   47.5104   51.8557 N   0  0  0  0  0  0  0  0  0  0  0  0
    9.5816   48.7447   52.4353 C   0  0  0  0  0  0  0  0  0  0  0  0
    8.4588   49.1275   53.0072 N   0  0  0  0  0  0  0  0  0  0  0  0
    7.5815   48.0971   52.7890 C   0  0  0  0  0  0  0  0  0  0  0  0
    6.3047   48.0541   53.1986 N   0  0  0  0  0  0  0  0  0  0  0  0
    2.3598   45.8665   52.3437 C   0  0  0  0  0  0  0  0  0  0  0  0
    1.3764   44.8702   52.3285 C   0  0  0  0  0  0  0  0  0  0  0  0
   -1.0812   44.6635   52.8617 H   0  0  0  0  0  0  0  0  0  0  0  0
   -1.1792   43.5398   51.4637 H   0  0  0  0  0  0  0  0  0  0  0  0
   -2.1996   43.2588   52.9151 H   0  0  0  0  0  0  0  0  0  0  0  0
    2.3374   43.1369   55.0974 H   0  0  0  0  0  0  0  0  0  0  0  0
    4.0913   44.8979   55.1019 H   0  0  0  0  0  0  0  0  0  0  0  0
    4.1045   47.7881   53.7212 H   0  0  0  0  0  0  0  0  0  0  0  0
    8.9558   43.1319   51.3874 H   0  0  0  0  0  0  0  0  0  0  0  0
    8.0000   43.8363   52.7559 H   0  0  0  0  0  0  0  0  0  0  0  0
    7.1569   41.8138   51.0568 H   0  0  0  0  0  0  0  0  0  0  0  0
    6.2477   42.3335   53.2763 H   0  0  0  0  0  0  0  0  0  0  0  0
    5.4815   43.8373   52.6139 H   0  0  0  0  0  0  0  0  0  0  0  0
    4.8223   40.9575   51.8592 H   0  0  0  0  0  0  0  0  0  0  0  0
    3.8033   42.1153   52.8121 H   0  0  0  0  0  0  0  0  0  0  0  0
    3.0888   41.8793   50.4261 H   0  0  0  0  0  0  0  0  0  0  0  0
    3.5614   43.5631   50.9038 H   0  0  0  0  0  0  0  0  0  0  0  0
    5.2276   41.5629   49.3195 H   0  0  0  0  0  0  0  0  0  0  0  0
    4.4607   43.0945   48.7231 H   0  0  0  0  0  0  0  0  0  0  0  0
    6.9152   43.3094   49.1506 H   0  0  0  0  0  0  0  0  0  0  0  0
    5.8853   44.4253   50.1409 H   0  0  0  0  0  0  0  0  0  0  0  0
   10.1775   47.0039   51.3563 H   0  0  0  0  0  0  0  0  0  0  0  0
   10.5045   49.3432   52.4246 H   0  0  0  0  0  0  0  0  0  0  0  0
    2.3616   46.6330   51.5548 H   0  0  0  0  0  0  0  0  0  0  0  0
    0.6118   44.8655   51.5377 H   0  0  0  0  0  0  0  0  0  0  0  0
  1  2  1  0
  2  3  2  0
  2  4  1  0
  4  5  2  0
  5  6  1  0
  6  7  2  0
  7  8  1  0
  8  9  1  0
  9 10  2  0
 10 11  1  0
 11 12  1  0
 12 13  1  0
 13 14  1  0
 14 15  1  0
 15 16  1  0
 16 17  1  0
 17 18  1  0
 18 19  1  0
 11 20  2  0
 20 21  1  0
 21 22  1  0
 22 23  2  0
 23 24  1  0
 24 25  2  0
  7 26  1  0
 26 27  2  0
 27  4  1  0
 25  9  1  0
 19 14  1  0
 24 20  1  0
  1 28  1  0
  1 29  1  0
  1 30  1  0
  5 31  1  0
  6 32  1  0
  8 33  1  0
 13 34  1  0
 13 35  1  0
 14 36  1  0
 15 37  1  0
 15 38  1  0
 16 39  1  0
 16 40  1  0
 17 41  1  0
 17 42  1  0
 18 43  1  0
 18 44  1  0
 19 45  1  0
 19 46  1  0
 21 47  1  0
 22 48  1  0
 26 49  1  0
 27 50  1  0
M  END
>  <meeko>  (63) 
{"is_sidechain": false}

>  <CID>  (63) 
5329565

>  <pose_index>  (63) 
9

>  <docking_score>  (63) 
-8.436

>  <rmsd_to_best_selected>  (63) 
1.78689253627422

>  <MWT>  (63) 
385.4929999999997

>  <TPSA>  (63) 
92.78999999999999

>  <logP>  (63) 
3.793000000000002

>  <HBD>  (63) 
2

>  <HBA>  (63) 
6

>  <SMILES>  (63) 
[H]c1c([H])c(S(=O)C([H])([H])[H])c([H])c([H])c1N([H])c1nc(OC([H])([H])C2([H])C([H])([H])C([H])([H])C([H])([H])C([H])([H])C2([H])[H])c2c(n1)nc([H])n2[H]

$$$$
5329573_pose1
     RDKit          3D

 49 52  0  0  0  0  0  0  0  0999 V2000
   -0.2350   41.7200   53.5030 N   0  0  0  0  0  0  0  0  0  0  0  0
   -0.2100   42.8610   53.2880 C   0  0  0  0  0  0  0  0  0  0  0  0
   -0.2220   44.3030   53.0030 C   0  0  0  0  0  0  0  0  0  0  0  0
    1.0420   45.0010   53.4440 C   0  0  0  0  0  0  0  0  0  0  0  0
    1.5990   46.0260   52.6730 C   0  0  0  0  0  0  0  0  0  0  0  0
    2.7690   46.6700   53.0910 C   0  0  0  0  0  0  0  0  0  0  0  0
    3.4130   46.3220   54.2890 C   0  0  0  0  0  0  0  0  0  0  0  0
    4.6000   46.9820   54.6240 N   0  0  0  0  0  0  0  0  0  0  0  0
    5.9200   46.8870   54.1800 C   0  0  0  0  0  0  0  0  0  0  0  0
    6.0390   46.3370   52.9500 N   0  0  0  0  0  0  0  0  0  0  0  0
    7.2600   46.1870   52.4030 C   0  0  0  0  0  0  0  0  0  0  0  0
    7.4380   45.6620   51.1460 O   0  0  0  0  0  0  0  0  0  0  0  0
    6.2460   45.2790   50.4560 C   0  0  0  0  0  0  0  0  0  0  0  0
    5.7970   43.8550   50.8340 C   0  0  0  0  0  0  0  0  0  0  0  0
    4.3100   43.7950   51.2160 C   0  0  0  0  0  0  0  0  0  0  0  0
    3.8900   42.3790   51.6070 C   0  0  0  0  0  0  0  0  0  0  0  0
    4.2050   41.3760   50.5020 C   0  0  0  0  0  0  0  0  0  0  0  0
    5.6730   41.4340   50.0940 C   0  0  0  0  0  0  0  0  0  0  0  0
    6.0950   42.8500   49.7080 C   0  0  0  0  0  0  0  0  0  0  0  0
    8.3400   46.6060   53.1320 C   0  0  0  0  0  0  0  0  0  0  0  0
    9.6890   46.6360   52.9320 N   0  0  0  0  0  0  0  0  0  0  0  0
   10.2530   47.1840   54.0520 C   0  0  0  0  0  0  0  0  0  0  0  0
    9.3440   47.5030   54.9480 N   0  0  0  0  0  0  0  0  0  0  0  0
    8.1480   47.1480   54.3830 C   0  0  0  0  0  0  0  0  0  0  0  0
    6.9380   47.3020   54.9390 N   0  0  0  0  0  0  0  0  0  0  0  0
    2.8500   45.2920   55.0460 C   0  0  0  0  0  0  0  0  0  0  0  0
    1.6740   44.6450   54.6390 C   0  0  0  0  0  0  0  0  0  0  0  0
   -0.3412   44.4452   51.9188 H   0  0  0  0  0  0  0  0  0  0  0  0
   -1.0562   44.7437   53.5686 H   0  0  0  0  0  0  0  0  0  0  0  0
    1.1147   46.3278   51.7326 H   0  0  0  0  0  0  0  0  0  0  0  0
    3.1946   47.4685   52.4655 H   0  0  0  0  0  0  0  0  0  0  0  0
    4.5740   47.5720   55.4420 H   0  0  0  0  0  0  0  0  0  0  0  0
    5.4431   45.9854   50.7137 H   0  0  0  0  0  0  0  0  0  0  0  0
    6.4564   45.2952   49.3764 H   0  0  0  0  0  0  0  0  0  0  0  0
    6.3840   43.5725   51.7204 H   0  0  0  0  0  0  0  0  0  0  0  0
    4.1320   44.4687   52.0671 H   0  0  0  0  0  0  0  0  0  0  0  0
    3.7162   44.1028   50.3427 H   0  0  0  0  0  0  0  0  0  0  0  0
    4.4291   42.0858   52.5199 H   0  0  0  0  0  0  0  0  0  0  0  0
    2.8030   42.3761   51.7754 H   0  0  0  0  0  0  0  0  0  0  0  0
    3.9745   40.3628   50.8630 H   0  0  0  0  0  0  0  0  0  0  0  0
    3.5932   41.6283   49.6233 H   0  0  0  0  0  0  0  0  0  0  0  0
    6.2915   41.0950   50.9381 H   0  0  0  0  0  0  0  0  0  0  0  0
    5.8120   40.7833   49.2181 H   0  0  0  0  0  0  0  0  0  0  0  0
    7.1751   42.8566   49.4999 H   0  0  0  0  0  0  0  0  0  0  0  0
    5.5223   43.1498   48.8180 H   0  0  0  0  0  0  0  0  0  0  0  0
   10.1750   46.3170   52.1040 H   0  0  0  0  0  0  0  0  0  0  0  0
   11.3337   47.3388   54.1866 H   0  0  0  0  0  0  0  0  0  0  0  0
    3.3392   44.9817   55.9811 H   0  0  0  0  0  0  0  0  0  0  0  0
    1.2448   43.8497   55.2662 H   0  0  0  0  0  0  0  0  0  0  0  0
  1  2  3  0
  2  3  1  0
  3  4  1  0
  4  5  2  0
  5  6  1  0
  6  7  2  0
  7  8  1  0
  8  9  1  0
  9 10  2  0
 10 11  1  0
 11 12  1  0
 12 13  1  0
 13 14  1  0
 14 15  1  0
 15 16  1  0
 16 17  1  0
 17 18  1  0
 18 19  1  0
 11 20  2  0
 20 21  1  0
 21 22  1  0
 22 23  2  0
 23 24  1  0
 24 25  2  0
  7 26  1  0
 26 27  2  0
 27  4  1  0
 25  9  1  0
 19 14  1  0
 24 20  1  0
  3 28  1  0
  3 29  1  0
  5 30  1  0
  6 31  1  0
  8 32  1  0
 13 33  1  0
 13 34  1  0
 14 35  1  0
 15 36  1  0
 15 37  1  0
 16 38  1  0
 16 39  1  0
 17 40  1  0
 17 41  1  0
 18 42  1  0
 18 43  1  0
 19 44  1  0
 19 45  1  0
 21 46  1  0
 22 47  1  0
 26 48  1  0
 27 49  1  0
M  END
>  <meeko>  (64) 
{"is_sidechain": false}

>  <CID>  (64) 
5329573

>  <pose_index>  (64) 
1

>  <docking_score>  (64) 
-9.208

>  <rmsd_to_best_selected>  (64) 
0.0

>  <MWT>  (64) 
362.4369999999996

>  <TPSA>  (64) 
99.50999999999999

>  <logP>  (64) 
4.121680000000002

>  <HBD>  (64) 
2

>  <HBA>  (64) 
6

>  <SMILES>  (64) 
[H]c1c([H])c(C([H])([H])C#N)c([H])c([H])c1N([H])c1nc(OC([H])([H])C2([H])C([H])([H])C([H])([H])C([H])([H])C([H])([H])C2([H])[H])c2c(n1)nc([H])n2[H]

$$$$
5329573_pose2
     RDKit          3D

 49 52  0  0  0  0  0  0  0  0999 V2000
   -2.1466   46.3738   52.5904 N   0  0  0  0  0  0  0  0  0  0  0  0
   -1.3881   45.5139   52.7658 C   0  0  0  0  0  0  0  0  0  0  0  0
   -0.4057   44.4358   52.9500 C   0  0  0  0  0  0  0  0  0  0  0  0
    0.9216   44.9312   53.4712 C   0  0  0  0  0  0  0  0  0  0  0  0
    1.2520   46.2884   53.4088 C   0  0  0  0  0  0  0  0  0  0  0  0
    2.4841   46.7393   53.8977 C   0  0  0  0  0  0  0  0  0  0  0  0
    3.4158   45.8597   54.4693 C   0  0  0  0  0  0  0  0  0  0  0  0
    4.6425   46.3755   54.9010 N   0  0  0  0  0  0  0  0  0  0  0  0
    5.8464   46.6742   54.2634 C   0  0  0  0  0  0  0  0  0  0  0  0
    6.0142   46.0182   53.0921 N   0  0  0  0  0  0  0  0  0  0  0  0
    7.1353   46.2164   52.3727 C   0  0  0  0  0  0  0  0  0  0  0  0
    7.3464   45.6009   51.1623 O   0  0  0  0  0  0  0  0  0  0  0  0
    7.4229   44.1741   51.1952 C   0  0  0  0  0  0  0  0  0  0  0  0
    6.0877   43.5182   50.8002 C   0  0  0  0  0  0  0  0  0  0  0  0
    6.2638   42.4378   49.7224 C   0  0  0  0  0  0  0  0  0  0  0  0
    4.9251   41.8148   49.3300 C   0  0  0  0  0  0  0  0  0  0  0  0
    4.1924   41.2518   50.5429 C   0  0  0  0  0  0  0  0  0  0  0  0
    4.0247   42.3037   51.6344 C   0  0  0  0  0  0  0  0  0  0  0  0
    5.3616   42.9300   52.0229 C   0  0  0  0  0  0  0  0  0  0  0  0
    8.0670   47.0869   52.8712 C   0  0  0  0  0  0  0  0  0  0  0  0
    9.2817   47.5488   52.4537 N   0  0  0  0  0  0  0  0  0  0  0  0
    9.7330   48.4190   53.4078 C   0  0  0  0  0  0  0  0  0  0  0  0
    8.8799   48.5383   54.4022 N   0  0  0  0  0  0  0  0  0  0  0  0
    7.8366   47.7128   54.0757 C   0  0  0  0  0  0  0  0  0  0  0  0
    6.7255   47.5235   54.8019 N   0  0  0  0  0  0  0  0  0  0  0  0
    3.0760   44.5058   54.5191 C   0  0  0  0  0  0  0  0  0  0  0  0
    1.8418   44.0436   54.0387 C   0  0  0  0  0  0  0  0  0  0  0  0
   -0.8142   43.7077   53.6663 H   0  0  0  0  0  0  0  0  0  0  0  0
   -0.2243   43.9834   51.9638 H   0  0  0  0  0  0  0  0  0  0  0  0
    0.5405   47.0054   52.9734 H   0  0  0  0  0  0  0  0  0  0  0  0
    2.7277   47.8100   53.8321 H   0  0  0  0  0  0  0  0  0  0  0  0
    4.7782   46.4451   55.8996 H   0  0  0  0  0  0  0  0  0  0  0  0
    8.2028   43.8436   50.4934 H   0  0  0  0  0  0  0  0  0  0  0  0
    7.6609   43.8692   52.2250 H   0  0  0  0  0  0  0  0  0  0  0  0
    5.4668   44.3205   50.3748 H   0  0  0  0  0  0  0  0  0  0  0  0
    6.7210   42.8929   48.8314 H   0  0  0  0  0  0  0  0  0  0  0  0
    6.9071   41.6445   50.1308 H   0  0  0  0  0  0  0  0  0  0  0  0
    4.2969   42.5852   48.8591 H   0  0  0  0  0  0  0  0  0  0  0  0
    5.1214   40.9879   48.6317 H   0  0  0  0  0  0  0  0  0  0  0  0
    3.1981   40.9016   50.2287 H   0  0  0  0  0  0  0  0  0  0  0  0
    4.7891   40.4232   50.9519 H   0  0  0  0  0  0  0  0  0  0  0  0
    3.3534   43.0943   51.2680 H   0  0  0  0  0  0  0  0  0  0  0  0
    3.6043   41.8118   52.5240 H   0  0  0  0  0  0  0  0  0  0  0  0
    5.1810   43.7338   52.7517 H   0  0  0  0  0  0  0  0  0  0  0  0
    5.9975   42.1435   52.4553 H   0  0  0  0  0  0  0  0  0  0  0  0
    9.7507   47.2944   51.5956 H   0  0  0  0  0  0  0  0  0  0  0  0
   10.6925   48.9540   53.3506 H   0  0  0  0  0  0  0  0  0  0  0  0
    3.7916   43.7866   54.9441 H   0  0  0  0  0  0  0  0  0  0  0  0
    1.5954   42.9738   54.1089 H   0  0  0  0  0  0  0  0  0  0  0  0
  1  2  3  0
  2  3  1  0
  3  4  1  0
  4  5  2  0
  5  6  1  0
  6  7  2  0
  7  8  1  0
  8  9  1  0
  9 10  2  0
 10 11  1  0
 11 12  1  0
 12 13  1  0
 13 14  1  0
 14 15  1  0
 15 16  1  0
 16 17  1  0
 17 18  1  0
 18 19  1  0
 11 20  2  0
 20 21  1  0
 21 22  1  0
 22 23  2  0
 23 24  1  0
 24 25  2  0
  7 26  1  0
 26 27  2  0
 27  4  1  0
 25  9  1  0
 19 14  1  0
 24 20  1  0
  3 28  1  0
  3 29  1  0
  5 30  1  0
  6 31  1  0
  8 32  1  0
 13 33  1  0
 13 34  1  0
 14 35  1  0
 15 36  1  0
 15 37  1  0
 16 38  1  0
 16 39  1  0
 17 40  1  0
 17 41  1  0
 18 42  1  0
 18 43  1  0
 19 44  1  0
 19 45  1  0
 21 46  1  0
 22 47  1  0
 26 48  1  0
 27 49  1  0
M  END
>  <meeko>  (65) 
{"is_sidechain": false}

>  <CID>  (65) 
5329573

>  <pose_index>  (65) 
2

>  <docking_score>  (65) 
-9.051

>  <rmsd_to_best_selected>  (65) 
1.5982082578310892

>  <MWT>  (65) 
362.4369999999996

>  <TPSA>  (65) 
99.50999999999999

>  <logP>  (65) 
4.121680000000002

>  <HBD>  (65) 
2

>  <HBA>  (65) 
6

>  <SMILES>  (65) 
[H]c1c([H])c(C([H])([H])C#N)c([H])c([H])c1N([H])c1nc(OC([H])([H])C2([H])C([H])([H])C([H])([H])C([H])([H])C([H])([H])C2([H])[H])c2c(n1)nc([H])n2[H]

$$$$
5329573_pose3
     RDKit          3D

 49 52  0  0  0  0  0  0  0  0999 V2000
    0.4757   41.8840   51.9550 N   0  0  0  0  0  0  0  0  0  0  0  0
    0.2167   42.8014   52.6181 C   0  0  0  0  0  0  0  0  0  0  0  0
   -0.0879   43.9441   53.4921 C   0  0  0  0  0  0  0  0  0  0  0  0
    1.1384   44.7346   53.8772 C   0  0  0  0  0  0  0  0  0  0  0  0
    2.0570   45.1484   52.9072 C   0  0  0  0  0  0  0  0  0  0  0  0
    3.1894   45.8837   53.2734 C   0  0  0  0  0  0  0  0  0  0  0  0
    3.4382   46.2381   54.6082 C   0  0  0  0  0  0  0  0  0  0  0  0
    4.6109   46.9401   54.9059 N   0  0  0  0  0  0  0  0  0  0  0  0
    5.9178   46.8925   54.4200 C   0  0  0  0  0  0  0  0  0  0  0  0
    6.1415   45.8659   53.5687 N   0  0  0  0  0  0  0  0  0  0  0  0
    7.3626   45.7047   53.0259 C   0  0  0  0  0  0  0  0  0  0  0  0
    7.6400   44.6975   52.1325 O   0  0  0  0  0  0  0  0  0  0  0  0
    6.8911   44.7235   50.9153 C   0  0  0  0  0  0  0  0  0  0  0  0
    5.7515   43.6875   50.9208 C   0  0  0  0  0  0  0  0  0  0  0  0
    4.4882   44.2070   50.2175 C   0  0  0  0  0  0  0  0  0  0  0  0
    3.3630   43.1746   50.2511 C   0  0  0  0  0  0  0  0  0  0  0  0
    3.8065   41.8443   49.6519 C   0  0  0  0  0  0  0  0  0  0  0  0
    5.0724   41.3192   50.3234 C   0  0  0  0  0  0  0  0  0  0  0  0
    6.1947   42.3547   50.2939 C   0  0  0  0  0  0  0  0  0  0  0  0
    8.3366   46.6038   53.3693 C   0  0  0  0  0  0  0  0  0  0  0  0
    9.6485   46.7824   53.0398 N   0  0  0  0  0  0  0  0  0  0  0  0
   10.0922   47.8807   53.7248 C   0  0  0  0  0  0  0  0  0  0  0  0
    9.1427   48.4083   54.4676 N   0  0  0  0  0  0  0  0  0  0  0  0
    8.0438   47.6196   54.2511 C   0  0  0  0  0  0  0  0  0  0  0  0
    6.8316   47.7908   54.7990 N   0  0  0  0  0  0  0  0  0  0  0  0
    2.5163   45.8129   55.5681 C   0  0  0  0  0  0  0  0  0  0  0  0
    1.3748   45.0810   55.2118 C   0  0  0  0  0  0  0  0  0  0  0  0
   -0.7847   44.6125   52.9652 H   0  0  0  0  0  0  0  0  0  0  0  0
   -0.5252   43.5428   54.4182 H   0  0  0  0  0  0  0  0  0  0  0  0
    1.8882   44.8941   51.8504 H   0  0  0  0  0  0  0  0  0  0  0  0
    3.9030   46.1919   52.4951 H   0  0  0  0  0  0  0  0  0  0  0  0
    4.5895   47.5302   55.7239 H   0  0  0  0  0  0  0  0  0  0  0  0
    6.4592   45.7267   50.7847 H   0  0  0  0  0  0  0  0  0  0  0  0
    7.5738   44.4754   50.0892 H   0  0  0  0  0  0  0  0  0  0  0  0
    5.5012   43.5121   51.9774 H   0  0  0  0  0  0  0  0  0  0  0  0
    4.1483   45.1224   50.7239 H   0  0  0  0  0  0  0  0  0  0  0  0
    4.7381   44.4104   49.1658 H   0  0  0  0  0  0  0  0  0  0  0  0
    3.0581   43.0122   51.2955 H   0  0  0  0  0  0  0  0  0  0  0  0
    2.5238   43.5595   49.6532 H   0  0  0  0  0  0  0  0  0  0  0  0
    3.0006   41.1072   49.7837 H   0  0  0  0  0  0  0  0  0  0  0  0
    4.0235   42.0029   48.5853 H   0  0  0  0  0  0  0  0  0  0  0  0
    4.8442   41.0697   51.3702 H   0  0  0  0  0  0  0  0  0  0  0  0
    5.4106   40.4292   49.7725 H   0  0  0  0  0  0  0  0  0  0  0  0
    7.0556   41.9643   50.8565 H   0  0  0  0  0  0  0  0  0  0  0  0
    6.4636   42.5408   49.2437 H   0  0  0  0  0  0  0  0  0  0  0  0
   10.1848   46.2108   52.4018 H   0  0  0  0  0  0  0  0  0  0  0  0
   11.1174   48.2745   53.6622 H   0  0  0  0  0  0  0  0  0  0  0  0
    2.6899   46.0577   56.6263 H   0  0  0  0  0  0  0  0  0  0  0  0
    0.6584   44.7763   55.9890 H   0  0  0  0  0  0  0  0  0  0  0  0
  1  2  3  0
  2  3  1  0
  3  4  1  0
  4  5  2  0
  5  6  1  0
  6  7  2  0
  7  8  1  0
  8  9  1  0
  9 10  2  0
 10 11  1  0
 11 12  1  0
 12 13  1  0
 13 14  1  0
 14 15  1  0
 15 16  1  0
 16 17  1  0
 17 18  1  0
 18 19  1  0
 11 20  2  0
 20 21  1  0
 21 22  1  0
 22 23  2  0
 23 24  1  0
 24 25  2  0
  7 26  1  0
 26 27  2  0
 27  4  1  0
 25  9  1  0
 19 14  1  0
 24 20  1  0
  3 28  1  0
  3 29  1  0
  5 30  1  0
  6 31  1  0
  8 32  1  0
 13 33  1  0
 13 34  1  0
 14 35  1  0
 15 36  1  0
 15 37  1  0
 16 38  1  0
 16 39  1  0
 17 40  1  0
 17 41  1  0
 18 42  1  0
 18 43  1  0
 19 44  1  0
 19 45  1  0
 21 46  1  0
 22 47  1  0
 26 48  1  0
 27 49  1  0
M  END
>  <meeko>  (66) 
{"is_sidechain": false}

>  <CID>  (66) 
5329573

>  <pose_index>  (66) 
3

>  <docking_score>  (66) 
-8.99

>  <rmsd_to_best_selected>  (66) 
1.138253551012828

>  <MWT>  (66) 
362.4369999999996

>  <TPSA>  (66) 
99.50999999999999

>  <logP>  (66) 
4.121680000000002

>  <HBD>  (66) 
2

>  <HBA>  (66) 
6

>  <SMILES>  (66) 
[H]c1c([H])c(C([H])([H])C#N)c([H])c([H])c1N([H])c1nc(OC([H])([H])C2([H])C([H])([H])C([H])([H])C([H])([H])C([H])([H])C2([H])[H])c2c(n1)nc([H])n2[H]

$$$$
5329573_pose4
     RDKit          3D

 49 52  0  0  0  0  0  0  0  0999 V2000
   -2.2562   45.3726   52.4889 N   0  0  0  0  0  0  0  0  0  0  0  0
   -1.2891   44.7462   52.6329 C   0  0  0  0  0  0  0  0  0  0  0  0
   -0.0748   43.9304   52.7770 C   0  0  0  0  0  0  0  0  0  0  0  0
    1.1255   44.7339   53.2129 C   0  0  0  0  0  0  0  0  0  0  0  0
    1.3998   45.9793   52.6392 C   0  0  0  0  0  0  0  0  0  0  0  0
    2.5138   46.7192   53.0523 C   0  0  0  0  0  0  0  0  0  0  0  0
    3.3794   46.2503   54.0507 C   0  0  0  0  0  0  0  0  0  0  0  0
    4.4953   47.0264   54.3845 N   0  0  0  0  0  0  0  0  0  0  0  0
    5.8531   46.9564   54.0703 C   0  0  0  0  0  0  0  0  0  0  0  0
    6.1167   46.2074   52.9754 N   0  0  0  0  0  0  0  0  0  0  0  0
    7.3892   46.0582   52.5613 C   0  0  0  0  0  0  0  0  0  0  0  0
    7.7137   45.3329   51.4397 O   0  0  0  0  0  0  0  0  0  0  0  0
    6.6188   44.9765   50.5917 C   0  0  0  0  0  0  0  0  0  0  0  0
    6.0286   43.6041   50.9629 C   0  0  0  0  0  0  0  0  0  0  0  0
    4.6147   43.7178   51.5527 C   0  0  0  0  0  0  0  0  0  0  0  0
    4.0550   42.3484   51.9336 C   0  0  0  0  0  0  0  0  0  0  0  0
    4.0699   41.3884   50.7489 C   0  0  0  0  0  0  0  0  0  0  0  0
    5.4609   41.2763   50.1346 C   0  0  0  0  0  0  0  0  0  0  0  0
    6.0228   42.6464   49.7589 C   0  0  0  0  0  0  0  0  0  0  0  0
    8.3711   46.6840   53.2809 C   0  0  0  0  0  0  0  0  0  0  0  0
    9.7287   46.7833   53.1835 N   0  0  0  0  0  0  0  0  0  0  0  0
   10.1523   47.5650   54.2241 C   0  0  0  0  0  0  0  0  0  0  0  0
    9.1485   47.9662   54.9725 N   0  0  0  0  0  0  0  0  0  0  0  0
    8.0333   47.4237   54.3919 C   0  0  0  0  0  0  0  0  0  0  0  0
    6.7705   47.5784   54.8157 N   0  0  0  0  0  0  0  0  0  0  0  0
    3.0995   45.0015   54.6111 C   0  0  0  0  0  0  0  0  0  0  0  0
    1.9828   44.2551   54.2100 C   0  0  0  0  0  0  0  0  0  0  0  0
   -0.2646   43.1484   53.5269 H   0  0  0  0  0  0  0  0  0  0  0  0
    0.1550   43.5042   51.7893 H   0  0  0  0  0  0  0  0  0  0  0  0
    0.7362   46.3798   51.8586 H   0  0  0  0  0  0  0  0  0  0  0  0
    2.7152   47.6930   52.5820 H   0  0  0  0  0  0  0  0  0  0  0  0
    4.3640   47.7197   55.1058 H   0  0  0  0  0  0  0  0  0  0  0  0
    5.8322   45.7395   50.6870 H   0  0  0  0  0  0  0  0  0  0  0  0
    6.9923   44.9189   49.5587 H   0  0  0  0  0  0  0  0  0  0  0  0
    6.6857   43.1874   51.7404 H   0  0  0  0  0  0  0  0  0  0  0  0
    4.6521   44.3511   52.4513 H   0  0  0  0  0  0  0  0  0  0  0  0
    3.9569   44.1592   50.7895 H   0  0  0  0  0  0  0  0  0  0  0  0
    4.6668   41.9253   52.7440 H   0  0  0  0  0  0  0  0  0  0  0  0
    3.0121   42.4802   52.2575 H   0  0  0  0  0  0  0  0  0  0  0  0
    3.7498   40.3934   51.0917 H   0  0  0  0  0  0  0  0  0  0  0  0
    3.3852   41.7785   49.9813 H   0  0  0  0  0  0  0  0  0  0  0  0
    6.1352   40.8015   50.8625 H   0  0  0  0  0  0  0  0  0  0  0  0
    5.3843   40.6732   49.2179 H   0  0  0  0  0  0  0  0  0  0  0  0
    7.0538   42.5224   49.3962 H   0  0  0  0  0  0  0  0  0  0  0  0
    5.3814   43.0793   48.9772 H   0  0  0  0  0  0  0  0  0  0  0  0
   10.3062   46.3611   52.4694 H   0  0  0  0  0  0  0  0  0  0  0  0
   11.2044   47.8258   54.4115 H   0  0  0  0  0  0  0  0  0  0  0  0
    3.7695   44.5954   55.3832 H   0  0  0  0  0  0  0  0  0  0  0  0
    1.7783   43.2836   54.6837 H   0  0  0  0  0  0  0  0  0  0  0  0
  1  2  3  0
  2  3  1  0
  3  4  1  0
  4  5  2  0
  5  6  1  0
  6  7  2  0
  7  8  1  0
  8  9  1  0
  9 10  2  0
 10 11  1  0
 11 12  1  0
 12 13  1  0
 13 14  1  0
 14 15  1  0
 15 16  1  0
 16 17  1  0
 17 18  1  0
 18 19  1  0
 11 20  2  0
 20 21  1  0
 21 22  1  0
 22 23  2  0
 23 24  1  0
 24 25  2  0
  7 26  1  0
 26 27  2  0
 27  4  1  0
 25  9  1  0
 19 14  1  0
 24 20  1  0
  3 28  1  0
  3 29  1  0
  5 30  1  0
  6 31  1  0
  8 32  1  0
 13 33  1  0
 13 34  1  0
 14 35  1  0
 15 36  1  0
 15 37  1  0
 16 38  1  0
 16 39  1  0
 17 40  1  0
 17 41  1  0
 18 42  1  0
 18 43  1  0
 19 44  1  0
 19 45  1  0
 21 46  1  0
 22 47  1  0
 26 48  1  0
 27 49  1  0
M  END
>  <meeko>  (67) 
{"is_sidechain": false}

>  <CID>  (67) 
5329573

>  <pose_index>  (67) 
4

>  <docking_score>  (67) 
-8.948

>  <rmsd_to_best_selected>  (67) 
0.8477708030900063

>  <MWT>  (67) 
362.4369999999996

>  <TPSA>  (67) 
99.50999999999999

>  <logP>  (67) 
4.121680000000002

>  <HBD>  (67) 
2

>  <HBA>  (67) 
6

>  <SMILES>  (67) 
[H]c1c([H])c(C([H])([H])C#N)c([H])c([H])c1N([H])c1nc(OC([H])([H])C2([H])C([H])([H])C([H])([H])C([H])([H])C([H])([H])C2([H])[H])c2c(n1)nc([H])n2[H]

$$$$
5329573_pose5
     RDKit          3D

 49 52  0  0  0  0  0  0  0  0999 V2000
   -1.5665   44.1643   55.5134 N   0  0  0  0  0  0  0  0  0  0  0  0
   -1.0838   44.1755   54.4579 C   0  0  0  0  0  0  0  0  0  0  0  0
   -0.5133   44.1782   53.1026 C   0  0  0  0  0  0  0  0  0  0  0  0
    0.7126   45.0504   52.9822 C   0  0  0  0  0  0  0  0  0  0  0  0
    1.8079   44.6410   52.2146 C   0  0  0  0  0  0  0  0  0  0  0  0
    2.9400   45.4583   52.1051 C   0  0  0  0  0  0  0  0  0  0  0  0
    3.0112   46.7054   52.7435 C   0  0  0  0  0  0  0  0  0  0  0  0
    4.1895   47.4508   52.6216 N   0  0  0  0  0  0  0  0  0  0  0  0
    5.5310   47.1955   52.9057 C   0  0  0  0  0  0  0  0  0  0  0  0
    5.8156   45.8791   53.0338 N   0  0  0  0  0  0  0  0  0  0  0  0
    7.0764   45.4942   53.3077 C   0  0  0  0  0  0  0  0  0  0  0  0
    7.4291   44.1706   53.4196 O   0  0  0  0  0  0  0  0  0  0  0  0
    7.8706   43.5408   52.2142 C   0  0  0  0  0  0  0  0  0  0  0  0
    6.7457   42.7298   51.5458 C   0  0  0  0  0  0  0  0  0  0  0  0
    5.6455   42.3279   52.5394 C   0  0  0  0  0  0  0  0  0  0  0  0
    4.5504   41.5080   51.8610 C   0  0  0  0  0  0  0  0  0  0  0  0
    3.9558   42.2452   50.6663 C   0  0  0  0  0  0  0  0  0  0  0  0
    5.0353   42.6706   49.6761 C   0  0  0  0  0  0  0  0  0  0  0  0
    6.1330   43.4875   50.3556 C   0  0  0  0  0  0  0  0  0  0  0  0
    8.0254   46.4717   53.4459 C   0  0  0  0  0  0  0  0  0  0  0  0
    9.3651   46.4899   53.7037 N   0  0  0  0  0  0  0  0  0  0  0  0
    9.7571   47.8008   53.7196 C   0  0  0  0  0  0  0  0  0  0  0  0
    8.7481   48.6132   53.4867 N   0  0  0  0  0  0  0  0  0  0  0  0
    7.6646   47.7934   53.3134 C   0  0  0  0  0  0  0  0  0  0  0  0
    6.4131   48.1906   53.0424 N   0  0  0  0  0  0  0  0  0  0  0  0
    1.9138   47.0991   53.5121 C   0  0  0  0  0  0  0  0  0  0  0  0
    0.7730   46.2914   53.6230 C   0  0  0  0  0  0  0  0  0  0  0  0
   -0.2380   43.1472   52.8358 H   0  0  0  0  0  0  0  0  0  0  0  0
   -1.2767   44.5870   52.4243 H   0  0  0  0  0  0  0  0  0  0  0  0
    1.7799   43.6722   51.6943 H   0  0  0  0  0  0  0  0  0  0  0  0
    3.7943   45.1138   51.5039 H   0  0  0  0  0  0  0  0  0  0  0  0
    4.0838   48.4315   52.4055 H   0  0  0  0  0  0  0  0  0  0  0  0
    8.2151   44.3156   51.5136 H   0  0  0  0  0  0  0  0  0  0  0  0
    8.6853   42.8474   52.4701 H   0  0  0  0  0  0  0  0  0  0  0  0
    7.2132   41.8071   51.1715 H   0  0  0  0  0  0  0  0  0  0  0  0
    6.0936   41.7281   53.3453 H   0  0  0  0  0  0  0  0  0  0  0  0
    5.1909   43.2457   52.9405 H   0  0  0  0  0  0  0  0  0  0  0  0
    4.9795   40.5559   51.5154 H   0  0  0  0  0  0  0  0  0  0  0  0
    3.7475   41.3344   52.5925 H   0  0  0  0  0  0  0  0  0  0  0  0
    3.2438   41.5808   50.1549 H   0  0  0  0  0  0  0  0  0  0  0  0
    3.4517   43.1503   51.0362 H   0  0  0  0  0  0  0  0  0  0  0  0
    5.4844   41.7712   49.2298 H   0  0  0  0  0  0  0  0  0  0  0  0
    4.5659   43.2998   48.9056 H   0  0  0  0  0  0  0  0  0  0  0  0
    6.9247   43.7016   49.6226 H   0  0  0  0  0  0  0  0  0  0  0  0
    5.6861   44.4191   50.7331 H   0  0  0  0  0  0  0  0  0  0  0  0
    9.9540   45.6817   53.8492 H   0  0  0  0  0  0  0  0  0  0  0  0
   10.7888   48.1347   53.9044 H   0  0  0  0  0  0  0  0  0  0  0  0
    1.9450   48.0628   54.0416 H   0  0  0  0  0  0  0  0  0  0  0  0
   -0.0833   46.6378   54.2203 H   0  0  0  0  0  0  0  0  0  0  0  0
  1  2  3  0
  2  3  1  0
  3  4  1  0
  4  5  2  0
  5  6  1  0
  6  7  2  0
  7  8  1  0
  8  9  1  0
  9 10  2  0
 10 11  1  0
 11 12  1  0
 12 13  1  0
 13 14  1  0
 14 15  1  0
 15 16  1  0
 16 17  1  0
 17 18  1  0
 18 19  1  0
 11 20  2  0
 20 21  1  0
 21 22  1  0
 22 23  2  0
 23 24  1  0
 24 25  2  0
  7 26  1  0
 26 27  2  0
 27  4  1  0
 25  9  1  0
 19 14  1  0
 24 20  1  0
  3 28  1  0
  3 29  1  0
  5 30  1  0
  6 31  1  0
  8 32  1  0
 13 33  1  0
 13 34  1  0
 14 35  1  0
 15 36  1  0
 15 37  1  0
 16 38  1  0
 16 39  1  0
 17 40  1  0
 17 41  1  0
 18 42  1  0
 18 43  1  0
 19 44  1  0
 19 45  1  0
 21 46  1  0
 22 47  1  0
 26 48  1  0
 27 49  1  0
M  END
>  <meeko>  (68) 
{"is_sidechain": false}

>  <CID>  (68) 
5329573

>  <pose_index>  (68) 
5

>  <docking_score>  (68) 
-8.747

>  <rmsd_to_best_selected>  (68) 
1.9947662725234043

>  <MWT>  (68) 
362.4369999999996

>  <TPSA>  (68) 
99.50999999999999

>  <logP>  (68) 
4.121680000000002

>  <HBD>  (68) 
2

>  <HBA>  (68) 
6

>  <SMILES>  (68) 
[H]c1c([H])c(C([H])([H])C#N)c([H])c([H])c1N([H])c1nc(OC([H])([H])C2([H])C([H])([H])C([H])([H])C([H])([H])C([H])([H])C2([H])[H])c2c(n1)nc([H])n2[H]

$$$$
5329573_pose7
     RDKit          3D

 49 52  0  0  0  0  0  0  0  0999 V2000
   -2.3047   44.9281   52.2838 N   0  0  0  0  0  0  0  0  0  0  0  0
   -1.2882   44.3815   52.4151 C   0  0  0  0  0  0  0  0  0  0  0  0
    0.0037   43.7110   52.6220 C   0  0  0  0  0  0  0  0  0  0  0  0
    1.1525   44.6785   52.7660 C   0  0  0  0  0  0  0  0  0  0  0  0
    1.5640   45.4656   51.6854 C   0  0  0  0  0  0  0  0  0  0  0  0
    2.6290   46.3635   51.8303 C   0  0  0  0  0  0  0  0  0  0  0  0
    3.3076   46.5102   53.0487 C   0  0  0  0  0  0  0  0  0  0  0  0
    4.3884   47.3984   53.1086 N   0  0  0  0  0  0  0  0  0  0  0  0
    5.7701   47.2511   52.9833 C   0  0  0  0  0  0  0  0  0  0  0  0
    6.1523   46.0033   52.6293 N   0  0  0  0  0  0  0  0  0  0  0  0
    7.4606   45.7257   52.4743 C   0  0  0  0  0  0  0  0  0  0  0  0
    7.9037   44.4840   52.0874 O   0  0  0  0  0  0  0  0  0  0  0  0
    7.4599   43.3871   52.8884 C   0  0  0  0  0  0  0  0  0  0  0  0
    6.2668   42.6543   52.2487 C   0  0  0  0  0  0  0  0  0  0  0  0
    4.9665   42.8531   53.0435 C   0  0  0  0  0  0  0  0  0  0  0  0
    3.8000   42.1016   52.4039 C   0  0  0  0  0  0  0  0  0  0  0  0
    3.6076   42.5021   50.9450 C   0  0  0  0  0  0  0  0  0  0  0  0
    4.8938   42.3311   50.1421 C   0  0  0  0  0  0  0  0  0  0  0  0
    6.0608   43.0778   50.7842 C   0  0  0  0  0  0  0  0  0  0  0  0
    8.3559   46.7393   52.6863 C   0  0  0  0  0  0  0  0  0  0  0  0
    9.7134   46.8596   52.6227 N   0  0  0  0  0  0  0  0  0  0  0  0
   10.0209   48.1516   52.9535 C   0  0  0  0  0  0  0  0  0  0  0  0
    8.9426   48.8561   53.2213 N   0  0  0  0  0  0  0  0  0  0  0  0
    7.8992   47.9842   53.0559 C   0  0  0  0  0  0  0  0  0  0  0  0
    6.5993   48.2725   53.2153 N   0  0  0  0  0  0  0  0  0  0  0  0
    2.8912   45.7130   54.1176 C   0  0  0  0  0  0  0  0  0  0  0  0
    1.8217   44.8158   53.9860 C   0  0  0  0  0  0  0  0  0  0  0  0
   -0.0593   43.1027   53.5364 H   0  0  0  0  0  0  0  0  0  0  0  0
    0.2014   43.0948   51.7325 H   0  0  0  0  0  0  0  0  0  0  0  0
    1.0487   45.3790   50.7174 H   0  0  0  0  0  0  0  0  0  0  0  0
    2.9412   46.9689   50.9665 H   0  0  0  0  0  0  0  0  0  0  0  0
    4.1889   48.3319   53.4333 H   0  0  0  0  0  0  0  0  0  0  0  0
    8.2906   42.6762   53.0092 H   0  0  0  0  0  0  0  0  0  0  0  0
    7.1337   43.7852   53.8606 H   0  0  0  0  0  0  0  0  0  0  0  0
    6.5161   41.5831   52.2721 H   0  0  0  0  0  0  0  0  0  0  0  0
    5.1131   42.4806   54.0681 H   0  0  0  0  0  0  0  0  0  0  0  0
    4.7250   43.9263   53.0483 H   0  0  0  0  0  0  0  0  0  0  0  0
    4.0007   41.0212   52.4542 H   0  0  0  0  0  0  0  0  0  0  0  0
    2.8827   42.3564   52.9549 H   0  0  0  0  0  0  0  0  0  0  0  0
    2.8233   41.8707   50.5018 H   0  0  0  0  0  0  0  0  0  0  0  0
    3.3209   43.5636   50.9142 H   0  0  0  0  0  0  0  0  0  0  0  0
    5.1413   41.2606   50.0881 H   0  0  0  0  0  0  0  0  0  0  0  0
    4.7300   42.7476   49.1372 H   0  0  0  0  0  0  0  0  0  0  0  0
    6.9783   42.8611   50.2174 H   0  0  0  0  0  0  0  0  0  0  0  0
    5.8327   44.1537   50.7659 H   0  0  0  0  0  0  0  0  0  0  0  0
   10.3641   46.1284   52.3721 H   0  0  0  0  0  0  0  0  0  0  0  0
   11.0448   48.5521   52.9908 H   0  0  0  0  0  0  0  0  0  0  0  0
    3.4132   45.7908   55.0828 H   0  0  0  0  0  0  0  0  0  0  0  0
    1.5062   44.2140   54.8510 H   0  0  0  0  0  0  0  0  0  0  0  0
  1  2  3  0
  2  3  1  0
  3  4  1  0
  4  5  2  0
  5  6  1  0
  6  7  2  0
  7  8  1  0
  8  9  1  0
  9 10  2  0
 10 11  1  0
 11 12  1  0
 12 13  1  0
 13 14  1  0
 14 15  1  0
 15 16  1  0
 16 17  1  0
 17 18  1  0
 18 19  1  0
 11 20  2  0
 20 21  1  0
 21 22  1  0
 22 23  2  0
 23 24  1  0
 24 25  2  0
  7 26  1  0
 26 27  2  0
 27  4  1  0
 25  9  1  0
 19 14  1  0
 24 20  1  0
  3 28  1  0
  3 29  1  0
  5 30  1  0
  6 31  1  0
  8 32  1  0
 13 33  1  0
 13 34  1  0
 14 35  1  0
 15 36  1  0
 15 37  1  0
 16 38  1  0
 16 39  1  0
 17 40  1  0
 17 41  1  0
 18 42  1  0
 18 43  1  0
 19 44  1  0
 19 45  1  0
 21 46  1  0
 22 47  1  0
 26 48  1  0
 27 49  1  0
M  END
>  <meeko>  (69) 
{"is_sidechain": false}

>  <CID>  (69) 
5329573

>  <pose_index>  (69) 
7

>  <docking_score>  (69) 
-8.652

>  <rmsd_to_best_selected>  (69) 
1.7775414309893773

>  <MWT>  (69) 
362.4369999999996

>  <TPSA>  (69) 
99.50999999999999

>  <logP>  (69) 
4.121680000000002

>  <HBD>  (69) 
2

>  <HBA>  (69) 
6

>  <SMILES>  (69) 
[H]c1c([H])c(C([H])([H])C#N)c([H])c([H])c1N([H])c1nc(OC([H])([H])C2([H])C([H])([H])C([H])([H])C([H])([H])C([H])([H])C2([H])[H])c2c(n1)nc([H])n2[H]

$$$$
76328458_pose1
     RDKit          3D

 45 48  0  0  0  0  0  0  0  0999 V2000
    1.1230   45.6530   56.1490 N   0  0  0  0  0  0  0  0  0  0  0  0
    2.1870   45.3140   55.3330 C   0  0  0  0  0  0  0  0  0  0  0  0
    3.4000   45.7360   55.7310 N   0  0  0  0  0  0  0  0  0  0  0  0
    4.4700   45.4280   54.9770 C   0  0  0  0  0  0  0  0  0  0  0  0
    5.7430   45.8150   55.3220 O   0  0  0  0  0  0  0  0  0  0  0  0
    6.2580   46.9500   54.6230 C   0  0  0  0  0  0  0  0  0  0  0  0
    7.4490   46.5740   53.7250 C   0  0  0  0  0  0  0  0  0  0  0  0
    8.7760   47.1350   54.2770 C   0  0  0  0  0  0  0  0  0  0  0  0
    9.8750   47.2700   53.2200 C   0  0  0  0  0  0  0  0  0  0  0  0
    9.7020   46.2750   52.0810 C   0  0  0  0  0  0  0  0  0  0  0  0
    8.3660   46.4650   51.3620 C   0  0  0  0  0  0  0  0  0  0  0  0
    7.2530   47.0020   52.2670 C   0  0  0  0  0  0  0  0  0  0  0  0
    4.2650   44.6660   53.8550 C   0  0  0  0  0  0  0  0  0  0  0  0
    5.0630   44.1500   52.8800 N   0  0  0  0  0  0  0  0  0  0  0  0
    4.2690   43.4470   51.9970 C   0  0  0  0  0  0  0  0  0  0  0  0
    4.7650   42.7430   50.8080 C   0  0  0  0  0  0  0  0  0  0  0  0
    5.9000   43.2390   50.1480 C   0  0  0  0  0  0  0  0  0  0  0  0
    6.4110   42.6030   49.0130 C   0  0  0  0  0  0  0  0  0  0  0  0
    5.7920   41.4580   48.5200 C   0  0  0  0  0  0  0  0  0  0  0  0
    4.6640   40.9510   49.1610 C   0  0  0  0  0  0  0  0  0  0  0  0
    4.1530   41.5880   50.2970 C   0  0  0  0  0  0  0  0  0  0  0  0
    3.0030   43.5080   52.3880 N   0  0  0  0  0  0  0  0  0  0  0  0
    2.9930   44.2590   53.5300 C   0  0  0  0  0  0  0  0  0  0  0  0
    1.9110   44.5680   54.2630 N   0  0  0  0  0  0  0  0  0  0  0  0
    1.2360   46.5970   56.4890 H   0  0  0  0  0  0  0  0  0  0  0  0
    0.9770   44.9240   56.8340 H   0  0  0  0  0  0  0  0  0  0  0  0
    5.4598   47.3751   53.9968 H   0  0  0  0  0  0  0  0  0  0  0  0
    6.6074   47.6809   55.3671 H   0  0  0  0  0  0  0  0  0  0  0  0
    7.5011   45.4753   53.7375 H   0  0  0  0  0  0  0  0  0  0  0  0
    8.5813   48.1297   54.7043 H   0  0  0  0  0  0  0  0  0  0  0  0
    9.1395   46.4187   55.0285 H   0  0  0  0  0  0  0  0  0  0  0  0
    9.8466   48.2893   52.8074 H   0  0  0  0  0  0  0  0  0  0  0  0
   10.8393   47.0621   53.7067 H   0  0  0  0  0  0  0  0  0  0  0  0
   10.5190   46.4153   51.3580 H   0  0  0  0  0  0  0  0  0  0  0  0
    9.7214   45.2606   52.5060 H   0  0  0  0  0  0  0  0  0  0  0  0
    8.5142   47.1747   50.5348 H   0  0  0  0  0  0  0  0  0  0  0  0
    8.0453   45.4733   51.0104 H   0  0  0  0  0  0  0  0  0  0  0  0
    7.2514   48.1008   52.2156 H   0  0  0  0  0  0  0  0  0  0  0  0
    6.2965   46.5883   51.9148 H   0  0  0  0  0  0  0  0  0  0  0  0
    6.0630   44.2690   52.8210 H   0  0  0  0  0  0  0  0  0  0  0  0
    6.3958   44.1434   50.5303 H   0  0  0  0  0  0  0  0  0  0  0  0
    7.3017   43.0071   48.5098 H   0  0  0  0  0  0  0  0  0  0  0  0
    6.1922   40.9552   47.6272 H   0  0  0  0  0  0  0  0  0  0  0  0
    4.1732   40.0464   48.7726 H   0  0  0  0  0  0  0  0  0  0  0  0
    3.2616   41.1790   50.7952 H   0  0  0  0  0  0  0  0  0  0  0  0
  1  2  1  0
  2  3  2  0
  3  4  1  0
  4  5  1  0
  5  6  1  0
  6  7  1  0
  7  8  1  0
  8  9  1  0
  9 10  1  0
 10 11  1  0
 11 12  1  0
  4 13  2  0
 13 14  1  0
 14 15  1  0
 15 16  1  0
 16 17  2  0
 17 18  1  0
 18 19  2  0
 19 20  1  0
 20 21  2  0
 15 22  2  0
 22 23  1  0
 23 24  2  0
 24  2  1  0
 12  7  1  0
 23 13  1  0
 21 16  1  0
  1 25  1  0
  1 26  1  0
  6 27  1  0
  6 28  1  0
  7 29  1  0
  8 30  1  0
  8 31  1  0
  9 32  1  0
  9 33  1  0
 10 34  1  0
 10 35  1  0
 11 36  1  0
 11 37  1  0
 12 38  1  0
 12 39  1  0
 14 40  1  0
 17 41  1  0
 18 42  1  0
 19 43  1  0
 20 44  1  0
 21 45  1  0
M  END
>  <meeko>  (70) 
{"is_sidechain": false}

>  <CID>  (70) 
76328458

>  <pose_index>  (70) 
1

>  <docking_score>  (70) 
-9.436

>  <rmsd_to_best_selected>  (70) 
0.0

>  <MWT>  (70) 
323.3999999999996

>  <TPSA>  (70) 
89.71

>  <logP>  (70) 
3.5612000000000013

>  <HBD>  (70) 
2

>  <HBA>  (70) 
5

>  <SMILES>  (70) 
[H]c1c([H])c([H])c(-c2nc3nc(N([H])[H])nc(OC([H])([H])C4([H])C([H])([H])C([H])([H])C([H])([H])C([H])([H])C4([H])[H])c3n2[H])c([H])c1[H]

$$$$
76328458_pose2
     RDKit          3D

 45 48  0  0  0  0  0  0  0  0999 V2000
    1.7964   46.2376   55.7980 N   0  0  0  0  0  0  0  0  0  0  0  0
    2.7009   45.5985   54.9686 C   0  0  0  0  0  0  0  0  0  0  0  0
    3.9863   45.6216   55.3613 N   0  0  0  0  0  0  0  0  0  0  0  0
    4.9065   45.0109   54.5951 C   0  0  0  0  0  0  0  0  0  0  0  0
    6.2393   44.9819   54.9341 O   0  0  0  0  0  0  0  0  0  0  0  0
    6.8219   46.2445   55.2663 C   0  0  0  0  0  0  0  0  0  0  0  0
    8.0327   46.5639   54.3725 C   0  0  0  0  0  0  0  0  0  0  0  0
    8.5243   48.0121   54.5803 C   0  0  0  0  0  0  0  0  0  0  0  0
    9.3332   48.5630   53.4029 C   0  0  0  0  0  0  0  0  0  0  0  0
   10.0307   47.4594   52.6183 C   0  0  0  0  0  0  0  0  0  0  0  0
    9.0300   46.4560   52.0428 C   0  0  0  0  0  0  0  0  0  0  0  0
    7.7626   46.2991   52.8876 C   0  0  0  0  0  0  0  0  0  0  0  0
    4.4727   44.3659   53.4651 C   0  0  0  0  0  0  0  0  0  0  0  0
    5.0698   43.6428   52.4765 N   0  0  0  0  0  0  0  0  0  0  0  0
    4.0935   43.2310   51.5919 C   0  0  0  0  0  0  0  0  0  0  0  0
    4.3438   42.4250   50.3900 C   0  0  0  0  0  0  0  0  0  0  0  0
    3.5032   41.3365   50.1134 C   0  0  0  0  0  0  0  0  0  0  0  0
    3.7008   40.5404   48.9808 C   0  0  0  0  0  0  0  0  0  0  0  0
    4.7466   40.8234   48.1066 C   0  0  0  0  0  0  0  0  0  0  0  0
    5.5912   41.8994   48.3655 C   0  0  0  0  0  0  0  0  0  0  0  0
    5.3939   42.6964   49.4984 C   0  0  0  0  0  0  0  0  0  0  0  0
    2.9100   43.6716   51.9949 N   0  0  0  0  0  0  0  0  0  0  0  0
    3.1357   44.3745   53.1458 C   0  0  0  0  0  0  0  0  0  0  0  0
    2.2048   44.9890   53.8921 N   0  0  0  0  0  0  0  0  0  0  0  0
    1.0543   45.6023   56.0530 H   0  0  0  0  0  0  0  0  0  0  0  0
    1.5331   47.1245   55.3914 H   0  0  0  0  0  0  0  0  0  0  0  0
    6.0649   47.0319   55.1363 H   0  0  0  0  0  0  0  0  0  0  0  0
    7.1676   46.1993   56.3096 H   0  0  0  0  0  0  0  0  0  0  0  0
    8.8301   45.8740   54.6858 H   0  0  0  0  0  0  0  0  0  0  0  0
    7.6469   48.6582   54.7313 H   0  0  0  0  0  0  0  0  0  0  0  0
    9.1936   48.0021   55.4532 H   0  0  0  0  0  0  0  0  0  0  0  0
    8.6531   49.1025   52.7273 H   0  0  0  0  0  0  0  0  0  0  0  0
   10.1076   49.2308   53.8081 H   0  0  0  0  0  0  0  0  0  0  0  0
   10.5966   47.9130   51.7912 H   0  0  0  0  0  0  0  0  0  0  0  0
   10.7003   46.9208   53.3050 H   0  0  0  0  0  0  0  0  0  0  0  0
    8.7380   46.7940   51.0376 H   0  0  0  0  0  0  0  0  0  0  0  0
    9.5296   45.4761   52.0267 H   0  0  0  0  0  0  0  0  0  0  0  0
    7.0059   47.0131   52.5304 H   0  0  0  0  0  0  0  0  0  0  0  0
    7.4083   45.2630   52.7837 H   0  0  0  0  0  0  0  0  0  0  0  0
    6.0576   43.4488   52.4117 H   0  0  0  0  0  0  0  0  0  0  0  0
    2.6746   41.1053   50.7990 H   0  0  0  0  0  0  0  0  0  0  0  0
    3.0305   39.6914   48.7809 H   0  0  0  0  0  0  0  0  0  0  0  0
    4.9050   40.1993   47.2148 H   0  0  0  0  0  0  0  0  0  0  0  0
    6.4180   42.1242   47.6757 H   0  0  0  0  0  0  0  0  0  0  0  0
    6.0680   43.5438   49.6924 H   0  0  0  0  0  0  0  0  0  0  0  0
  1  2  1  0
  2  3  2  0
  3  4  1  0
  4  5  1  0
  5  6  1  0
  6  7  1  0
  7  8  1  0
  8  9  1  0
  9 10  1  0
 10 11  1  0
 11 12  1  0
  4 13  2  0
 13 14  1  0
 14 15  1  0
 15 16  1  0
 16 17  2  0
 17 18  1  0
 18 19  2  0
 19 20  1  0
 20 21  2  0
 15 22  2  0
 22 23  1  0
 23 24  2  0
 24  2  1  0
 12  7  1  0
 23 13  1  0
 21 16  1  0
  1 25  1  0
  1 26  1  0
  6 27  1  0
  6 28  1  0
  7 29  1  0
  8 30  1  0
  8 31  1  0
  9 32  1  0
  9 33  1  0
 10 34  1  0
 10 35  1  0
 11 36  1  0
 11 37  1  0
 12 38  1  0
 12 39  1  0
 14 40  1  0
 17 41  1  0
 18 42  1  0
 19 43  1  0
 20 44  1  0
 21 45  1  0
M  END
>  <meeko>  (71) 
{"is_sidechain": false}

>  <CID>  (71) 
76328458

>  <pose_index>  (71) 
2

>  <docking_score>  (71) 
-9.402

>  <rmsd_to_best_selected>  (71) 
1.2123294908558964

>  <MWT>  (71) 
323.3999999999996

>  <TPSA>  (71) 
89.71

>  <logP>  (71) 
3.5612000000000013

>  <HBD>  (71) 
2

>  <HBA>  (71) 
5

>  <SMILES>  (71) 
[H]c1c([H])c([H])c(-c2nc3nc(N([H])[H])nc(OC([H])([H])C4([H])C([H])([H])C([H])([H])C([H])([H])C([H])([H])C4([H])[H])c3n2[H])c([H])c1[H]

$$$$
76328458_pose3
     RDKit          3D

 45 48  0  0  0  0  0  0  0  0999 V2000
    1.7690   46.1097   55.8136 N   0  0  0  0  0  0  0  0  0  0  0  0
    2.6530   45.5000   54.9406 C   0  0  0  0  0  0  0  0  0  0  0  0
    3.9537   45.5556   55.2767 N   0  0  0  0  0  0  0  0  0  0  0  0
    4.8542   44.9729   54.4665 C   0  0  0  0  0  0  0  0  0  0  0  0
    6.2010   44.9784   54.7465 O   0  0  0  0  0  0  0  0  0  0  0  0
    6.7495   46.2418   55.1308 C   0  0  0  0  0  0  0  0  0  0  0  0
    7.6850   46.8071   54.0493 C   0  0  0  0  0  0  0  0  0  0  0  0
    8.7341   45.7662   53.6041 C   0  0  0  0  0  0  0  0  0  0  0  0
    9.9812   46.3816   52.9652 C   0  0  0  0  0  0  0  0  0  0  0  0
    9.6900   47.7262   52.3153 C   0  0  0  0  0  0  0  0  0  0  0  0
    9.1598   48.7419   53.3281 C   0  0  0  0  0  0  0  0  0  0  0  0
    8.3726   48.1072   54.4785 C   0  0  0  0  0  0  0  0  0  0  0  0
    4.3880   44.3213   53.3535 C   0  0  0  0  0  0  0  0  0  0  0  0
    4.9592   43.6190   52.3359 N   0  0  0  0  0  0  0  0  0  0  0  0
    3.9566   43.1858   51.4920 C   0  0  0  0  0  0  0  0  0  0  0  0
    4.1745   42.3932   50.2766 C   0  0  0  0  0  0  0  0  0  0  0  0
    3.3417   41.2923   50.0225 C   0  0  0  0  0  0  0  0  0  0  0  0
    3.5085   40.5084   48.8776 C   0  0  0  0  0  0  0  0  0  0  0  0
    4.5161   40.8138   47.9679 C   0  0  0  0  0  0  0  0  0  0  0  0
    5.3544   41.9020   48.2023 C   0  0  0  0  0  0  0  0  0  0  0  0
    5.1856   42.6864   49.3480 C   0  0  0  0  0  0  0  0  0  0  0  0
    2.7803   43.5932   51.9501 N   0  0  0  0  0  0  0  0  0  0  0  0
    3.0390   44.2960   53.0935 C   0  0  0  0  0  0  0  0  0  0  0  0
    2.1254   44.8818   53.8841 N   0  0  0  0  0  0  0  0  0  0  0  0
    0.9640   46.4509   55.3072 H   0  0  0  0  0  0  0  0  0  0  0  0
    2.2684   46.7689   56.3946 H   0  0  0  0  0  0  0  0  0  0  0  0
    5.9264   46.9522   55.2974 H   0  0  0  0  0  0  0  0  0  0  0  0
    7.3359   46.0962   56.0501 H   0  0  0  0  0  0  0  0  0  0  0  0
    7.0416   47.0464   53.1897 H   0  0  0  0  0  0  0  0  0  0  0  0
    9.0457   45.1883   54.4867 H   0  0  0  0  0  0  0  0  0  0  0  0
    8.2574   45.1384   52.8369 H   0  0  0  0  0  0  0  0  0  0  0  0
   10.7452   46.5226   53.7439 H   0  0  0  0  0  0  0  0  0  0  0  0
   10.3317   45.6957   52.1799 H   0  0  0  0  0  0  0  0  0  0  0  0
   10.6181   48.1161   51.8720 H   0  0  0  0  0  0  0  0  0  0  0  0
    8.9185   47.5749   51.5460 H   0  0  0  0  0  0  0  0  0  0  0  0
   10.0148   49.2890   53.7520 H   0  0  0  0  0  0  0  0  0  0  0  0
    8.4658   49.4033   52.7886 H   0  0  0  0  0  0  0  0  0  0  0  0
    9.0647   47.8878   55.3048 H   0  0  0  0  0  0  0  0  0  0  0  0
    7.5939   48.8179   54.7924 H   0  0  0  0  0  0  0  0  0  0  0  0
    5.9477   43.4527   52.2258 H   0  0  0  0  0  0  0  0  0  0  0  0
    2.5437   41.0422   50.7372 H   0  0  0  0  0  0  0  0  0  0  0  0
    2.8439   39.6510   48.6959 H   0  0  0  0  0  0  0  0  0  0  0  0
    4.6505   40.1981   47.0663 H   0  0  0  0  0  0  0  0  0  0  0  0
    6.1513   42.1449   47.4841 H   0  0  0  0  0  0  0  0  0  0  0  0
    5.8529   43.5431   49.5233 H   0  0  0  0  0  0  0  0  0  0  0  0
  1  2  1  0
  2  3  2  0
  3  4  1  0
  4  5  1  0
  5  6  1  0
  6  7  1  0
  7  8  1  0
  8  9  1  0
  9 10  1  0
 10 11  1  0
 11 12  1  0
  4 13  2  0
 13 14  1  0
 14 15  1  0
 15 16  1  0
 16 17  2  0
 17 18  1  0
 18 19  2  0
 19 20  1  0
 20 21  2  0
 15 22  2  0
 22 23  1  0
 23 24  2  0
 24  2  1  0
 12  7  1  0
 23 13  1  0
 21 16  1  0
  1 25  1  0
  1 26  1  0
  6 27  1  0
  6 28  1  0
  7 29  1  0
  8 30  1  0
  8 31  1  0
  9 32  1  0
  9 33  1  0
 10 34  1  0
 10 35  1  0
 11 36  1  0
 11 37  1  0
 12 38  1  0
 12 39  1  0
 14 40  1  0
 17 41  1  0
 18 42  1  0
 19 43  1  0
 20 44  1  0
 21 45  1  0
M  END
>  <meeko>  (72) 
{"is_sidechain": false}

>  <CID>  (72) 
76328458

>  <pose_index>  (72) 
3

>  <docking_score>  (72) 
-9.256

>  <rmsd_to_best_selected>  (72) 
1.6760264529844342

>  <MWT>  (72) 
323.3999999999996

>  <TPSA>  (72) 
89.71

>  <logP>  (72) 
3.5612000000000013

>  <HBD>  (72) 
2

>  <HBA>  (72) 
5

>  <SMILES>  (72) 
[H]c1c([H])c([H])c(-c2nc3nc(N([H])[H])nc(OC([H])([H])C4([H])C([H])([H])C([H])([H])C([H])([H])C([H])([H])C4([H])[H])c3n2[H])c([H])c1[H]

$$$$
76328458_pose4
     RDKit          3D

 45 48  0  0  0  0  0  0  0  0999 V2000
    1.3538   45.0562   56.6641 N   0  0  0  0  0  0  0  0  0  0  0  0
    2.3491   44.9161   55.7139 C   0  0  0  0  0  0  0  0  0  0  0  0
    3.5212   45.5140   55.9866 N   0  0  0  0  0  0  0  0  0  0  0  0
    4.5249   45.4031   55.0995 C   0  0  0  0  0  0  0  0  0  0  0  0
    5.7553   45.9785   55.3113 O   0  0  0  0  0  0  0  0  0  0  0  0
    6.1463   46.9746   54.3628 C   0  0  0  0  0  0  0  0  0  0  0  0
    7.5305   46.6775   53.7628 C   0  0  0  0  0  0  0  0  0  0  0  0
    8.3656   47.9641   53.5964 C   0  0  0  0  0  0  0  0  0  0  0  0
    9.4836   47.8431   52.5576 C   0  0  0  0  0  0  0  0  0  0  0  0
    9.9656   46.4088   52.3969 C   0  0  0  0  0  0  0  0  0  0  0  0
    8.8373   45.4794   51.9481 C   0  0  0  0  0  0  0  0  0  0  0  0
    7.4525   45.9157   52.4364 C   0  0  0  0  0  0  0  0  0  0  0  0
    4.3034   44.6517   53.9733 C   0  0  0  0  0  0  0  0  0  0  0  0
    5.0456   44.2985   52.8876 N   0  0  0  0  0  0  0  0  0  0  0  0
    4.2679   43.5031   52.0708 C   0  0  0  0  0  0  0  0  0  0  0  0
    4.7176   42.9221   50.7996 C   0  0  0  0  0  0  0  0  0  0  0  0
    6.0781   42.9897   50.4634 C   0  0  0  0  0  0  0  0  0  0  0  0
    6.5542   42.4507   49.2656 C   0  0  0  0  0  0  0  0  0  0  0  0
    5.6732   41.8336   48.3823 C   0  0  0  0  0  0  0  0  0  0  0  0
    4.3181   41.7573   48.6979 C   0  0  0  0  0  0  0  0  0  0  0  0
    3.8418   42.2975   49.8976 C   0  0  0  0  0  0  0  0  0  0  0  0
    3.0664   43.3492   52.6097 N   0  0  0  0  0  0  0  0  0  0  0  0
    3.0799   44.0569   53.7800 C   0  0  0  0  0  0  0  0  0  0  0  0
    2.0628   44.1668   54.6489 N   0  0  0  0  0  0  0  0  0  0  0  0
    0.4767   45.2804   56.2158 H   0  0  0  0  0  0  0  0  0  0  0  0
    1.6728   45.6735   57.3990 H   0  0  0  0  0  0  0  0  0  0  0  0
    5.4048   47.0039   53.5509 H   0  0  0  0  0  0  0  0  0  0  0  0
    6.1992   47.9418   54.8840 H   0  0  0  0  0  0  0  0  0  0  0  0
    8.0380   46.0217   54.4854 H   0  0  0  0  0  0  0  0  0  0  0  0
    7.6922   48.7776   53.2885 H   0  0  0  0  0  0  0  0  0  0  0  0
    8.8475   48.1616   54.5653 H   0  0  0  0  0  0  0  0  0  0  0  0
    9.1067   48.2010   51.5882 H   0  0  0  0  0  0  0  0  0  0  0  0
   10.3340   48.4484   52.9045 H   0  0  0  0  0  0  0  0  0  0  0  0
   10.7678   46.3846   51.6447 H   0  0  0  0  0  0  0  0  0  0  0  0
   10.3301   46.0583   53.3738 H   0  0  0  0  0  0  0  0  0  0  0  0
    8.8257   45.4523   50.8485 H   0  0  0  0  0  0  0  0  0  0  0  0
    9.0383   44.4917   52.3887 H   0  0  0  0  0  0  0  0  0  0  0  0
    6.9968   46.5684   51.6772 H   0  0  0  0  0  0  0  0  0  0  0  0
    6.8463   45.0119   52.5966 H   0  0  0  0  0  0  0  0  0  0  0  0
    6.0004   44.5775   52.7177 H   0  0  0  0  0  0  0  0  0  0  0  0
    6.7821   43.4755   51.1550 H   0  0  0  0  0  0  0  0  0  0  0  0
    7.6248   42.5140   49.0208 H   0  0  0  0  0  0  0  0  0  0  0  0
    6.0452   41.4077   47.4388 H   0  0  0  0  0  0  0  0  0  0  0  0
    3.6200   41.2704   48.0011 H   0  0  0  0  0  0  0  0  0  0  0  0
    2.7700   42.2320   50.1364 H   0  0  0  0  0  0  0  0  0  0  0  0
  1  2  1  0
  2  3  2  0
  3  4  1  0
  4  5  1  0
  5  6  1  0
  6  7  1  0
  7  8  1  0
  8  9  1  0
  9 10  1  0
 10 11  1  0
 11 12  1  0
  4 13  2  0
 13 14  1  0
 14 15  1  0
 15 16  1  0
 16 17  2  0
 17 18  1  0
 18 19  2  0
 19 20  1  0
 20 21  2  0
 15 22  2  0
 22 23  1  0
 23 24  2  0
 24  2  1  0
 12  7  1  0
 23 13  1  0
 21 16  1  0
  1 25  1  0
  1 26  1  0
  6 27  1  0
  6 28  1  0
  7 29  1  0
  8 30  1  0
  8 31  1  0
  9 32  1  0
  9 33  1  0
 10 34  1  0
 10 35  1  0
 11 36  1  0
 11 37  1  0
 12 38  1  0
 12 39  1  0
 14 40  1  0
 17 41  1  0
 18 42  1  0
 19 43  1  0
 20 44  1  0
 21 45  1  0
M  END
>  <meeko>  (73) 
{"is_sidechain": false}

>  <CID>  (73) 
76328458

>  <pose_index>  (73) 
4

>  <docking_score>  (73) 
-8.841

>  <rmsd_to_best_selected>  (73) 
1.0095112861057063

>  <MWT>  (73) 
323.3999999999996

>  <TPSA>  (73) 
89.71

>  <logP>  (73) 
3.5612000000000013

>  <HBD>  (73) 
2

>  <HBA>  (73) 
5

>  <SMILES>  (73) 
[H]c1c([H])c([H])c(-c2nc3nc(N([H])[H])nc(OC([H])([H])C4([H])C([H])([H])C([H])([H])C([H])([H])C([H])([H])C4([H])[H])c3n2[H])c([H])c1[H]

$$$$
76328458_pose7
     RDKit          3D

 45 48  0  0  0  0  0  0  0  0999 V2000
    1.0384   46.2387   55.7562 N   0  0  0  0  0  0  0  0  0  0  0  0
    2.1125   45.7469   55.0353 C   0  0  0  0  0  0  0  0  0  0  0  0
    3.3333   46.0422   55.5141 N   0  0  0  0  0  0  0  0  0  0  0  0
    4.4123   45.5837   54.8546 C   0  0  0  0  0  0  0  0  0  0  0  0
    5.6943   45.8338   55.2867 O   0  0  0  0  0  0  0  0  0  0  0  0
    6.3494   46.9453   54.6717 C   0  0  0  0  0  0  0  0  0  0  0  0
    7.6010   46.5087   53.8914 C   0  0  0  0  0  0  0  0  0  0  0  0
    8.8674   47.2300   54.3997 C   0  0  0  0  0  0  0  0  0  0  0  0
   10.0073   47.2659   53.3784 C   0  0  0  0  0  0  0  0  0  0  0  0
    9.9446   46.0970   52.4055 C   0  0  0  0  0  0  0  0  0  0  0  0
    8.6353   46.0893   51.6141 C   0  0  0  0  0  0  0  0  0  0  0  0
    7.4528   46.6907   52.3785 C   0  0  0  0  0  0  0  0  0  0  0  0
    4.2018   44.8086   53.7429 C   0  0  0  0  0  0  0  0  0  0  0  0
    5.0035   44.1673   52.8482 N   0  0  0  0  0  0  0  0  0  0  0  0
    4.1992   43.5274   51.9266 C   0  0  0  0  0  0  0  0  0  0  0  0
    4.6950   42.7252   50.8005 C   0  0  0  0  0  0  0  0  0  0  0  0
    3.8125   42.3951   49.7605 C   0  0  0  0  0  0  0  0  0  0  0  0
    4.2383   41.6352   48.6675 C   0  0  0  0  0  0  0  0  0  0  0  0
    5.5560   41.1938   48.5987 C   0  0  0  0  0  0  0  0  0  0  0  0
    6.4459   41.5111   49.6219 C   0  0  0  0  0  0  0  0  0  0  0  0
    6.0196   42.2722   50.7160 C   0  0  0  0  0  0  0  0  0  0  0  0
    2.9243   43.7480   52.2166 N   0  0  0  0  0  0  0  0  0  0  0  0
    2.9182   44.5396   53.3322 C   0  0  0  0  0  0  0  0  0  0  0  0
    1.8297   44.9978   53.9702 N   0  0  0  0  0  0  0  0  0  0  0  0
    0.1715   45.9687   55.3128 H   0  0  0  0  0  0  0  0  0  0  0  0
    1.1794   47.2214   55.9461 H   0  0  0  0  0  0  0  0  0  0  0  0
    5.6487   47.4323   53.9775 H   0  0  0  0  0  0  0  0  0  0  0  0
    6.6650   47.6388   55.4651 H   0  0  0  0  0  0  0  0  0  0  0  0
    7.7125   45.4306   54.0793 H   0  0  0  0  0  0  0  0  0  0  0  0
    8.5981   48.2653   54.6559 H   0  0  0  0  0  0  0  0  0  0  0  0
    9.2327   46.6636   55.2690 H   0  0  0  0  0  0  0  0  0  0  0  0
    9.9432   48.2048   52.8088 H   0  0  0  0  0  0  0  0  0  0  0  0
   10.9568   47.1962   53.9295 H   0  0  0  0  0  0  0  0  0  0  0  0
   10.7863   46.1736   51.7015 H   0  0  0  0  0  0  0  0  0  0  0  0
    9.9999   45.1643   52.9861 H   0  0  0  0  0  0  0  0  0  0  0  0
    8.7836   46.6689   50.6910 H   0  0  0  0  0  0  0  0  0  0  0  0
    8.3869   45.0369   51.4121 H   0  0  0  0  0  0  0  0  0  0  0  0
    7.3933   47.7658   52.1535 H   0  0  0  0  0  0  0  0  0  0  0  0
    6.5387   46.1684   52.0595 H   0  0  0  0  0  0  0  0  0  0  0  0
    6.0116   44.1672   52.8634 H   0  0  0  0  0  0  0  0  0  0  0  0
    2.7689   42.7399   49.8062 H   0  0  0  0  0  0  0  0  0  0  0  0
    3.5320   41.3863   47.8618 H   0  0  0  0  0  0  0  0  0  0  0  0
    5.8937   40.5962   47.7392 H   0  0  0  0  0  0  0  0  0  0  0  0
    7.4878   41.1621   49.5697 H   0  0  0  0  0  0  0  0  0  0  0  0
    6.7310   42.5179   51.5182 H   0  0  0  0  0  0  0  0  0  0  0  0
  1  2  1  0
  2  3  2  0
  3  4  1  0
  4  5  1  0
  5  6  1  0
  6  7  1  0
  7  8  1  0
  8  9  1  0
  9 10  1  0
 10 11  1  0
 11 12  1  0
  4 13  2  0
 13 14  1  0
 14 15  1  0
 15 16  1  0
 16 17  2  0
 17 18  1  0
 18 19  2  0
 19 20  1  0
 20 21  2  0
 15 22  2  0
 22 23  1  0
 23 24  2  0
 24  2  1  0
 12  7  1  0
 23 13  1  0
 21 16  1  0
  1 25  1  0
  1 26  1  0
  6 27  1  0
  6 28  1  0
  7 29  1  0
  8 30  1  0
  8 31  1  0
  9 32  1  0
  9 33  1  0
 10 34  1  0
 10 35  1  0
 11 36  1  0
 11 37  1  0
 12 38  1  0
 12 39  1  0
 14 40  1  0
 17 41  1  0
 18 42  1  0
 19 43  1  0
 20 44  1  0
 21 45  1  0
M  END
>  <meeko>  (74) 
{"is_sidechain": false}

>  <CID>  (74) 
76328458

>  <pose_index>  (74) 
7

>  <docking_score>  (74) 
-8.105

>  <rmsd_to_best_selected>  (74) 
0.6520979341240425

>  <MWT>  (74) 
323.3999999999996

>  <TPSA>  (74) 
89.71

>  <logP>  (74) 
3.5612000000000013

>  <HBD>  (74) 
2

>  <HBA>  (74) 
5

>  <SMILES>  (74) 
[H]c1c([H])c([H])c(-c2nc3nc(N([H])[H])nc(OC([H])([H])C4([H])C([H])([H])C([H])([H])C([H])([H])C([H])([H])C4([H])[H])c3n2[H])c([H])c1[H]

$$$$
76328458_pose8
     RDKit          3D

 45 48  0  0  0  0  0  0  0  0999 V2000
    1.8254   45.8201   56.2355 N   0  0  0  0  0  0  0  0  0  0  0  0
    2.5885   45.6456   55.0943 C   0  0  0  0  0  0  0  0  0  0  0  0
    3.4294   46.6469   54.7829 N   0  0  0  0  0  0  0  0  0  0  0  0
    4.1993   46.5254   53.6874 C   0  0  0  0  0  0  0  0  0  0  0  0
    5.0910   47.5012   53.3080 O   0  0  0  0  0  0  0  0  0  0  0  0
    6.1536   47.7626   54.2289 C   0  0  0  0  0  0  0  0  0  0  0  0
    7.3561   46.8356   53.9880 C   0  0  0  0  0  0  0  0  0  0  0  0
    8.6647   47.4511   54.5272 C   0  0  0  0  0  0  0  0  0  0  0  0
    9.9283   46.8784   53.8798 C   0  0  0  0  0  0  0  0  0  0  0  0
    9.7223   45.4574   53.3741 C   0  0  0  0  0  0  0  0  0  0  0  0
    8.6101   45.3854   52.3266 C   0  0  0  0  0  0  0  0  0  0  0  0
    7.5186   46.4425   52.5155 C   0  0  0  0  0  0  0  0  0  0  0  0
    4.1059   45.3633   52.9645 C   0  0  0  0  0  0  0  0  0  0  0  0
    4.7087   44.8705   51.8472 N   0  0  0  0  0  0  0  0  0  0  0  0
    4.1967   43.6133   51.5970 C   0  0  0  0  0  0  0  0  0  0  0  0
    4.6002   42.7576   50.4743 C   0  0  0  0  0  0  0  0  0  0  0  0
    5.5767   43.2231   49.5804 C   0  0  0  0  0  0  0  0  0  0  0  0
    5.9938   42.4443   48.4972 C   0  0  0  0  0  0  0  0  0  0  0  0
    5.4379   41.1856   48.2918 C   0  0  0  0  0  0  0  0  0  0  0  0
    4.4663   40.7067   49.1673 C   0  0  0  0  0  0  0  0  0  0  0  0
    4.0490   41.4858   50.2515 C   0  0  0  0  0  0  0  0  0  0  0  0
    3.2966   43.3064   52.5211 N   0  0  0  0  0  0  0  0  0  0  0  0
    3.2326   44.3801   53.3640 C   0  0  0  0  0  0  0  0  0  0  0  0
    2.4480   44.4888   54.4476 N   0  0  0  0  0  0  0  0  0  0  0  0
    1.9714   46.7469   56.6105 H   0  0  0  0  0  0  0  0  0  0  0  0
    1.9644   45.0364   56.8583 H   0  0  0  0  0  0  0  0  0  0  0  0
    6.4791   48.8067   54.1106 H   0  0  0  0  0  0  0  0  0  0  0  0
    5.7781   47.5796   55.2465 H   0  0  0  0  0  0  0  0  0  0  0  0
    7.1437   45.9141   54.5500 H   0  0  0  0  0  0  0  0  0  0  0  0
    8.6405   48.5351   54.3417 H   0  0  0  0  0  0  0  0  0  0  0  0
    8.7153   47.2089   55.5990 H   0  0  0  0  0  0  0  0  0  0  0  0
   10.2129   47.5184   53.0316 H   0  0  0  0  0  0  0  0  0  0  0  0
   10.7179   46.8532   54.6451 H   0  0  0  0  0  0  0  0  0  0  0  0
   10.6600   45.0999   52.9236 H   0  0  0  0  0  0  0  0  0  0  0  0
    9.4304   44.8285   54.2280 H   0  0  0  0  0  0  0  0  0  0  0  0
    9.0598   45.5240   51.3323 H   0  0  0  0  0  0  0  0  0  0  0  0
    8.1286   44.4024   52.4354 H   0  0  0  0  0  0  0  0  0  0  0  0
    7.7859   47.3380   51.9353 H   0  0  0  0  0  0  0  0  0  0  0  0
    6.5659   46.0163   52.1681 H   0  0  0  0  0  0  0  0  0  0  0  0
    5.4078   45.3524   51.3007 H   0  0  0  0  0  0  0  0  0  0  0  0
    6.0212   44.2174   49.7347 H   0  0  0  0  0  0  0  0  0  0  0  0
    6.7610   42.8264   47.8077 H   0  0  0  0  0  0  0  0  0  0  0  0
    5.7648   40.5704   47.4405 H   0  0  0  0  0  0  0  0  0  0  0  0
    4.0254   39.7120   49.0056 H   0  0  0  0  0  0  0  0  0  0  0  0
    3.2808   41.0980   50.9367 H   0  0  0  0  0  0  0  0  0  0  0  0
  1  2  1  0
  2  3  2  0
  3  4  1  0
  4  5  1  0
  5  6  1  0
  6  7  1  0
  7  8  1  0
  8  9  1  0
  9 10  1  0
 10 11  1  0
 11 12  1  0
  4 13  2  0
 13 14  1  0
 14 15  1  0
 15 16  1  0
 16 17  2  0
 17 18  1  0
 18 19  2  0
 19 20  1  0
 20 21  2  0
 15 22  2  0
 22 23  1  0
 23 24  2  0
 24  2  1  0
 12  7  1  0
 23 13  1  0
 21 16  1  0
  1 25  1  0
  1 26  1  0
  6 27  1  0
  6 28  1  0
  7 29  1  0
  8 30  1  0
  8 31  1  0
  9 32  1  0
  9 33  1  0
 10 34  1  0
 10 35  1  0
 11 36  1  0
 11 37  1  0
 12 38  1  0
 12 39  1  0
 14 40  1  0
 17 41  1  0
 18 42  1  0
 19 43  1  0
 20 44  1  0
 21 45  1  0
M  END
>  <meeko>  (75) 
{"is_sidechain": false}

>  <CID>  (75) 
76328458

>  <pose_index>  (75) 
8

>  <docking_score>  (75) 
-8.105

>  <rmsd_to_best_selected>  (75) 
1.0211323280036813

>  <MWT>  (75) 
323.3999999999996

>  <TPSA>  (75) 
89.71

>  <logP>  (75) 
3.5612000000000013

>  <HBD>  (75) 
2

>  <HBA>  (75) 
5

>  <SMILES>  (75) 
[H]c1c([H])c([H])c(-c2nc3nc(N([H])[H])nc(OC([H])([H])C4([H])C([H])([H])C([H])([H])C([H])([H])C([H])([H])C4([H])[H])c3n2[H])c([H])c1[H]

$$$$
76328458_pose9
     RDKit          3D

 45 48  0  0  0  0  0  0  0  0999 V2000
    1.4163   46.1747   56.1599 N   0  0  0  0  0  0  0  0  0  0  0  0
    2.3794   45.9642   55.1890 C   0  0  0  0  0  0  0  0  0  0  0  0
    3.3052   46.9290   55.0503 N   0  0  0  0  0  0  0  0  0  0  0  0
    4.2680   46.7699   54.1253 C   0  0  0  0  0  0  0  0  0  0  0  0
    5.2558   47.7073   53.9306 O   0  0  0  0  0  0  0  0  0  0  0  0
    6.4523   47.5143   54.6895 C   0  0  0  0  0  0  0  0  0  0  0  0
    7.5859   46.9349   53.8275 C   0  0  0  0  0  0  0  0  0  0  0  0
    7.4463   47.3553   52.3495 C   0  0  0  0  0  0  0  0  0  0  0  0
    8.1777   46.4294   51.3731 C   0  0  0  0  0  0  0  0  0  0  0  0
    9.3667   45.7354   52.0218 C   0  0  0  0  0  0  0  0  0  0  0  0
    8.9396   44.8792   53.2147 C   0  0  0  0  0  0  0  0  0  0  0  0
    7.7006   45.4116   53.9410 C   0  0  0  0  0  0  0  0  0  0  0  0
    4.2687   45.6105   53.3932 C   0  0  0  0  0  0  0  0  0  0  0  0
    5.0564   45.0882   52.4118 N   0  0  0  0  0  0  0  0  0  0  0  0
    4.5514   43.8516   52.0631 C   0  0  0  0  0  0  0  0  0  0  0  0
    5.1286   42.9756   51.0374 C   0  0  0  0  0  0  0  0  0  0  0  0
    6.1805   43.4584   50.2421 C   0  0  0  0  0  0  0  0  0  0  0  0
    6.7640   42.6615   49.2535 C   0  0  0  0  0  0  0  0  0  0  0  0
    6.3017   41.3657   49.0444 C   0  0  0  0  0  0  0  0  0  0  0  0
    5.2592   40.8688   49.8216 C   0  0  0  0  0  0  0  0  0  0  0  0
    4.6749   41.6671   50.8117 C   0  0  0  0  0  0  0  0  0  0  0  0
    3.4769   43.5859   52.7934 N   0  0  0  0  0  0  0  0  0  0  0  0
    3.2944   44.6652   53.6121 C   0  0  0  0  0  0  0  0  0  0  0  0
    2.3190   44.8109   54.5225 N   0  0  0  0  0  0  0  0  0  0  0  0
    0.7727   45.3966   56.1840 H   0  0  0  0  0  0  0  0  0  0  0  0
    1.0246   47.1007   56.0521 H   0  0  0  0  0  0  0  0  0  0  0  0
    6.7751   48.4831   55.0985 H   0  0  0  0  0  0  0  0  0  0  0  0
    6.2349   46.7984   55.4959 H   0  0  0  0  0  0  0  0  0  0  0  0
    8.5174   47.3620   54.2273 H   0  0  0  0  0  0  0  0  0  0  0  0
    6.3775   47.3594   52.0893 H   0  0  0  0  0  0  0  0  0  0  0  0
    7.9061   48.3500   52.2540 H   0  0  0  0  0  0  0  0  0  0  0  0
    7.4731   45.6645   51.0147 H   0  0  0  0  0  0  0  0  0  0  0  0
    8.5565   47.0442   50.5434 H   0  0  0  0  0  0  0  0  0  0  0  0
    9.8534   45.0900   51.2758 H   0  0  0  0  0  0  0  0  0  0  0  0
   10.0591   46.5091   52.3853 H   0  0  0  0  0  0  0  0  0  0  0  0
    8.7208   43.8637   52.8530 H   0  0  0  0  0  0  0  0  0  0  0  0
    9.7688   44.8971   53.9372 H   0  0  0  0  0  0  0  0  0  0  0  0
    6.8040   44.9529   53.4986 H   0  0  0  0  0  0  0  0  0  0  0  0
    7.7916   45.1538   55.0065 H   0  0  0  0  0  0  0  0  0  0  0  0
    5.8669   45.5379   52.0145 H   0  0  0  0  0  0  0  0  0  0  0  0
    6.5516   44.4817   50.4001 H   0  0  0  0  0  0  0  0  0  0  0  0
    7.5876   43.0579   48.6415 H   0  0  0  0  0  0  0  0  0  0  0  0
    6.7588   40.7358   48.2670 H   0  0  0  0  0  0  0  0  0  0  0  0
    4.8931   39.8446   49.6569 H   0  0  0  0  0  0  0  0  0  0  0  0
    3.8511   41.2645   51.4194 H   0  0  0  0  0  0  0  0  0  0  0  0
  1  2  1  0
  2  3  2  0
  3  4  1  0
  4  5  1  0
  5  6  1  0
  6  7  1  0
  7  8  1  0
  8  9  1  0
  9 10  1  0
 10 11  1  0
 11 12  1  0
  4 13  2  0
 13 14  1  0
 14 15  1  0
 15 16  1  0
 16 17  2  0
 17 18  1  0
 18 19  2  0
 19 20  1  0
 20 21  2  0
 15 22  2  0
 22 23  1  0
 23 24  2  0
 24  2  1  0
 12  7  1  0
 23 13  1  0
 21 16  1  0
  1 25  1  0
  1 26  1  0
  6 27  1  0
  6 28  1  0
  7 29  1  0
  8 30  1  0
  8 31  1  0
  9 32  1  0
  9 33  1  0
 10 34  1  0
 10 35  1  0
 11 36  1  0
 11 37  1  0
 12 38  1  0
 12 39  1  0
 14 40  1  0
 17 41  1  0
 18 42  1  0
 19 43  1  0
 20 44  1  0
 21 45  1  0
M  END
>  <meeko>  (76) 
{"is_sidechain": false}

>  <CID>  (76) 
76328458

>  <pose_index>  (76) 
9

>  <docking_score>  (76) 
-8.081

>  <rmsd_to_best_selected>  (76) 
1.3789621858935839

>  <MWT>  (76) 
323.3999999999996

>  <TPSA>  (76) 
89.71

>  <logP>  (76) 
3.5612000000000013

>  <HBD>  (76) 
2

>  <HBA>  (76) 
5

>  <SMILES>  (76) 
[H]c1c([H])c([H])c(-c2nc3nc(N([H])[H])nc(OC([H])([H])C4([H])C([H])([H])C([H])([H])C([H])([H])C([H])([H])C4([H])[H])c3n2[H])c([H])c1[H]

$$$$
COLIG_2A6_pose1
     RDKit          3D

 45 48  0  0  0  0  0  0  0  0999 V2000
    7.2120   42.5960   49.3080 C   0  0  0  0  0  0  0  0  0  0  0  0
    6.9790   43.9190   49.6710 C   0  0  0  0  0  0  0  0  0  0  0  0
    5.8510   44.2550   50.4290 C   0  0  0  0  0  0  0  0  0  0  0  0
    4.9370   43.2800   50.8410 C   0  0  0  0  0  0  0  0  0  0  0  0
    3.7930   43.5490   51.6000 N   0  0  0  0  0  0  0  0  0  0  0  0
    3.5580   44.2030   52.8090 C   0  0  0  0  0  0  0  0  0  0  0  0
    4.6270   44.8960   53.2640 N   0  0  0  0  0  0  0  0  0  0  0  0
    4.5330   45.5740   54.4240 C   0  0  0  0  0  0  0  0  0  0  0  0
    5.5930   46.2890   54.9350 O   0  0  0  0  0  0  0  0  0  0  0  0
    6.8430   46.0630   54.2750 C   0  0  0  0  0  0  0  0  0  0  0  0
    7.4830   47.3830   53.7980 C   0  0  0  0  0  0  0  0  0  0  0  0
    8.9070   47.5460   54.3510 C   0  0  0  0  0  0  0  0  0  0  0  0
    9.9200   46.6260   53.6720 C   0  0  0  0  0  0  0  0  0  0  0  0
    9.8960   46.7840   52.1540 C   0  0  0  0  0  0  0  0  0  0  0  0
    8.4920   46.5990   51.5830 C   0  0  0  0  0  0  0  0  0  0  0  0
    7.4810   47.5190   52.2650 C   0  0  0  0  0  0  0  0  0  0  0  0
    3.3440   45.5260   55.0980 C   0  0  0  0  0  0  0  0  0  0  0  0
    2.8710   46.0560   56.2640 N   0  0  0  0  0  0  0  0  0  0  0  0
    1.5750   45.6380   56.4000 C   0  0  0  0  0  0  0  0  0  0  0  0
    1.1990   44.8780   55.3940 N   0  0  0  0  0  0  0  0  0  0  0  0
    2.2970   44.8020   54.5770 C   0  0  0  0  0  0  0  0  0  0  0  0
    2.3740   44.1230   53.4240 N   0  0  0  0  0  0  0  0  0  0  0  0
    5.1930   41.9500   50.4630 C   0  0  0  0  0  0  0  0  0  0  0  0
    6.3170   41.6090   49.7050 C   0  0  0  0  0  0  0  0  0  0  0  0
    8.0979   42.3330   48.7113 H   0  0  0  0  0  0  0  0  0  0  0  0
    7.6842   44.7042   49.3610 H   0  0  0  0  0  0  0  0  0  0  0  0
    5.6804   45.3058   50.7058 H   0  0  0  0  0  0  0  0  0  0  0  0
    2.9140   43.2180   51.2300 H   0  0  0  0  0  0  0  0  0  0  0  0
    7.5308   45.5657   54.9747 H   0  0  0  0  0  0  0  0  0  0  0  0
    6.6559   45.4339   53.3923 H   0  0  0  0  0  0  0  0  0  0  0  0
    6.8568   48.1937   54.1988 H   0  0  0  0  0  0  0  0  0  0  0  0
    9.2243   48.5884   54.2005 H   0  0  0  0  0  0  0  0  0  0  0  0
    8.8791   47.2750   55.4167 H   0  0  0  0  0  0  0  0  0  0  0  0
   10.9272   46.8710   54.0402 H   0  0  0  0  0  0  0  0  0  0  0  0
    9.6548   45.5860   53.9131 H   0  0  0  0  0  0  0  0  0  0  0  0
   10.2547   47.7913   51.8958 H   0  0  0  0  0  0  0  0  0  0  0  0
   10.5445   46.0082   51.7208 H   0  0  0  0  0  0  0  0  0  0  0  0
    8.5117   46.8259   50.5068 H   0  0  0  0  0  0  0  0  0  0  0  0
    8.1834   45.5581   51.7598 H   0  0  0  0  0  0  0  0  0  0  0  0
    7.7233   48.5600   52.0051 H   0  0  0  0  0  0  0  0  0  0  0  0
    6.4809   47.2294   51.9102 H   0  0  0  0  0  0  0  0  0  0  0  0
    3.3860   46.6450   56.9030 H   0  0  0  0  0  0  0  0  0  0  0  0
    0.9265   45.9050   57.2474 H   0  0  0  0  0  0  0  0  0  0  0  0
    4.4926   41.1596   50.7709 H   0  0  0  0  0  0  0  0  0  0  0  0
    6.4932   40.5605   49.4229 H   0  0  0  0  0  0  0  0  0  0  0  0
  1  2  2  0
  2  3  1  0
  3  4  2  0
  4  5  1  0
  5  6  1  0
  6  7  2  0
  7  8  1  0
  8  9  1  0
  9 10  1  0
 10 11  1  0
 11 12  1  0
 12 13  1  0
 13 14  1  0
 14 15  1  0
 15 16  1  0
  8 17  2  0
 17 18  1  0
 18 19  1  0
 19 20  2  0
 20 21  1  0
 21 22  2  0
  4 23  1  0
 23 24  2  0
 24  1  1  0
 22  6  1  0
 16 11  1  0
 21 17  1  0
  1 25  1  0
  2 26  1  0
  3 27  1  0
  5 28  1  0
 10 29  1  0
 10 30  1  0
 11 31  1  0
 12 32  1  0
 12 33  1  0
 13 34  1  0
 13 35  1  0
 14 36  1  0
 14 37  1  0
 15 38  1  0
 15 39  1  0
 16 40  1  0
 16 41  1  0
 18 42  1  0
 19 43  1  0
 23 44  1  0
 24 45  1  0
M  END
>  <meeko>  (77) 
{"is_sidechain": false}

>  <CID>  (77) 
COLIG_2A6

>  <pose_index>  (77) 
1

>  <docking_score>  (77) 
-9.66

>  <rmsd_to_best_selected>  (77) 
0.0

>  <MWT>  (77) 
323.39999999999964

>  <TPSA>  (77) 
75.72

>  <logP>  (77) 
4.055600000000003

>  <HBD>  (77) 
2

>  <HBA>  (77) 
5

>  <SMILES>  (77) 
[H]c1c([H])c([H])c(N([H])c2nc(OC([H])([H])C3([H])C([H])([H])C([H])([H])C([H])([H])C([H])([H])C3([H])[H])c3c(n2)nc([H])n3[H])c([H])c1[H]

$$$$
COLIG_2A6_pose3
     RDKit          3D

 45 48  0  0  0  0  0  0  0  0999 V2000
    7.4930   42.0754   49.7210 C   0  0  0  0  0  0  0  0  0  0  0  0
    7.5728   43.4553   49.8841 C   0  0  0  0  0  0  0  0  0  0  0  0
    6.4754   44.1743   50.3737 C   0  0  0  0  0  0  0  0  0  0  0  0
    5.2801   43.5316   50.7110 C   0  0  0  0  0  0  0  0  0  0  0  0
    4.1494   44.1896   51.2061 N   0  0  0  0  0  0  0  0  0  0  0  0
    3.8154   44.7633   52.4326 C   0  0  0  0  0  0  0  0  0  0  0  0
    4.8815   45.2502   53.1087 N   0  0  0  0  0  0  0  0  0  0  0  0
    4.6965   45.8307   54.3090 C   0  0  0  0  0  0  0  0  0  0  0  0
    5.7481   46.3334   55.0426 O   0  0  0  0  0  0  0  0  0  0  0  0
    7.0113   45.7113   54.7845 C   0  0  0  0  0  0  0  0  0  0  0  0
    8.1264   46.7545   54.5621 C   0  0  0  0  0  0  0  0  0  0  0  0
    9.3743   46.1136   53.9347 C   0  0  0  0  0  0  0  0  0  0  0  0
    9.1873   45.7637   52.4592 C   0  0  0  0  0  0  0  0  0  0  0  0
    8.7199   46.9704   51.6494 C   0  0  0  0  0  0  0  0  0  0  0  0
    7.4659   47.6052   52.2430 C   0  0  0  0  0  0  0  0  0  0  0  0
    7.6541   47.9517   53.7182 C   0  0  0  0  0  0  0  0  0  0  0  0
    3.4200   45.9007   54.7964 C   0  0  0  0  0  0  0  0  0  0  0  0
    2.8435   46.3907   55.9319 N   0  0  0  0  0  0  0  0  0  0  0  0
    1.4980   46.1592   55.8343 C   0  0  0  0  0  0  0  0  0  0  0  0
    1.1884   45.5529   54.7084 N   0  0  0  0  0  0  0  0  0  0  0  0
    2.3819   45.3869   54.0551 C   0  0  0  0  0  0  0  0  0  0  0  0
    2.5493   44.8071   52.8577 N   0  0  0  0  0  0  0  0  0  0  0  0
    5.2223   42.1372   50.5393 C   0  0  0  0  0  0  0  0  0  0  0  0
    6.3143   41.4136   50.0498 C   0  0  0  0  0  0  0  0  0  0  0  0
    8.3555   41.5123   49.3348 H   0  0  0  0  0  0  0  0  0  0  0  0
    8.5027   43.9839   49.6272 H   0  0  0  0  0  0  0  0  0  0  0  0
    6.5551   45.2646   50.4952 H   0  0  0  0  0  0  0  0  0  0  0  0
    3.3747   44.3023   50.5696 H   0  0  0  0  0  0  0  0  0  0  0  0
    7.2801   45.0800   55.6442 H   0  0  0  0  0  0  0  0  0  0  0  0
    6.9166   45.1101   53.8682 H   0  0  0  0  0  0  0  0  0  0  0  0
    8.3927   47.1404   55.5571 H   0  0  0  0  0  0  0  0  0  0  0  0
   10.2134   46.8192   54.0241 H   0  0  0  0  0  0  0  0  0  0  0  0
    9.5685   45.1746   54.4737 H   0  0  0  0  0  0  0  0  0  0  0  0
   10.1462   45.4105   52.0519 H   0  0  0  0  0  0  0  0  0  0  0  0
    8.4171   44.9817   52.3863 H   0  0  0  0  0  0  0  0  0  0  0  0
    9.5242   47.7206   51.6333 H   0  0  0  0  0  0  0  0  0  0  0  0
    8.4779   46.6251   50.6334 H   0  0  0  0  0  0  0  0  0  0  0  0
    7.2347   48.5257   51.6870 H   0  0  0  0  0  0  0  0  0  0  0  0
    6.6429   46.8798   52.1629 H   0  0  0  0  0  0  0  0  0  0  0  0
    8.4032   48.7533   53.7970 H   0  0  0  0  0  0  0  0  0  0  0  0
    6.6750   48.2643   54.1100 H   0  0  0  0  0  0  0  0  0  0  0  0
    3.3253   46.8395   56.6979 H   0  0  0  0  0  0  0  0  0  0  0  0
    0.7651   46.4450   56.6031 H   0  0  0  0  0  0  0  0  0  0  0  0
    4.2959   41.6027   50.7963 H   0  0  0  0  0  0  0  0  0  0  0  0
    6.2415   40.3232   49.9250 H   0  0  0  0  0  0  0  0  0  0  0  0
  1  2  2  0
  2  3  1  0
  3  4  2  0
  4  5  1  0
  5  6  1  0
  6  7  2  0
  7  8  1  0
  8  9  1  0
  9 10  1  0
 10 11  1  0
 11 12  1  0
 12 13  1  0
 13 14  1  0
 14 15  1  0
 15 16  1  0
  8 17  2  0
 17 18  1  0
 18 19  1  0
 19 20  2  0
 20 21  1  0
 21 22  2  0
  4 23  1  0
 23 24  2  0
 24  1  1  0
 22  6  1  0
 16 11  1  0
 21 17  1  0
  1 25  1  0
  2 26  1  0
  3 27  1  0
  5 28  1  0
 10 29  1  0
 10 30  1  0
 11 31  1  0
 12 32  1  0
 12 33  1  0
 13 34  1  0
 13 35  1  0
 14 36  1  0
 14 37  1  0
 15 38  1  0
 15 39  1  0
 16 40  1  0
 16 41  1  0
 18 42  1  0
 19 43  1  0
 23 44  1  0
 24 45  1  0
M  END
>  <meeko>  (78) 
{"is_sidechain": false}

>  <CID>  (78) 
COLIG_2A6

>  <pose_index>  (78) 
3

>  <docking_score>  (78) 
-9.086

>  <rmsd_to_best_selected>  (78) 
1.2843551680755547

>  <MWT>  (78) 
323.39999999999964

>  <TPSA>  (78) 
75.72

>  <logP>  (78) 
4.055600000000003

>  <HBD>  (78) 
2

>  <HBA>  (78) 
5

>  <SMILES>  (78) 
[H]c1c([H])c([H])c(N([H])c2nc(OC([H])([H])C3([H])C([H])([H])C([H])([H])C([H])([H])C([H])([H])C3([H])[H])c3c(n2)nc([H])n3[H])c([H])c1[H]

$$$$
COLIG_2A6_pose4
     RDKit          3D

 45 48  0  0  0  0  0  0  0  0999 V2000
    7.6390   43.1126   49.4606 C   0  0  0  0  0  0  0  0  0  0  0  0
    7.5761   42.4373   50.6751 C   0  0  0  0  0  0  0  0  0  0  0  0
    6.4220   42.5086   51.4651 C   0  0  0  0  0  0  0  0  0  0  0  0
    5.3097   43.2523   51.0585 C   0  0  0  0  0  0  0  0  0  0  0  0
    4.1282   43.3631   51.7980 N   0  0  0  0  0  0  0  0  0  0  0  0
    3.7188   44.1625   52.8645 C   0  0  0  0  0  0  0  0  0  0  0  0
    4.6110   45.1256   53.1905 N   0  0  0  0  0  0  0  0  0  0  0  0
    4.3375   45.9669   54.2062 C   0  0  0  0  0  0  0  0  0  0  0  0
    5.2151   46.9586   54.5841 O   0  0  0  0  0  0  0  0  0  0  0  0
    6.2868   47.1936   53.6643 C   0  0  0  0  0  0  0  0  0  0  0  0
    7.6397   46.7135   54.2304 C   0  0  0  0  0  0  0  0  0  0  0  0
    8.0159   45.3293   53.6804 C   0  0  0  0  0  0  0  0  0  0  0  0
    8.4600   45.3684   52.2190 C   0  0  0  0  0  0  0  0  0  0  0  0
    9.5866   46.3732   51.9991 C   0  0  0  0  0  0  0  0  0  0  0  0
    9.2215   47.7624   52.5166 C   0  0  0  0  0  0  0  0  0  0  0  0
    8.7760   47.7202   53.9763 C   0  0  0  0  0  0  0  0  0  0  0  0
    3.1526   45.8056   54.8696 C   0  0  0  0  0  0  0  0  0  0  0  0
    2.5354   46.4294   55.9152 N   0  0  0  0  0  0  0  0  0  0  0  0
    1.3416   45.7935   56.1170 C   0  0  0  0  0  0  0  0  0  0  0  0
    1.1643   44.8058   55.2657 N   0  0  0  0  0  0  0  0  0  0  0  0
    2.2897   44.8051   54.4842 C   0  0  0  0  0  0  0  0  0  0  0  0
    2.5469   43.9606   53.4756 N   0  0  0  0  0  0  0  0  0  0  0  0
    5.3946   43.9256   49.8265 C   0  0  0  0  0  0  0  0  0  0  0  0
    6.5454   43.8591   49.0338 C   0  0  0  0  0  0  0  0  0  0  0  0
    8.5469   43.0568   48.8420 H   0  0  0  0  0  0  0  0  0  0  0  0
    8.4373   41.8443   51.0167 H   0  0  0  0  0  0  0  0  0  0  0  0
    6.3898   41.9695   52.4234 H   0  0  0  0  0  0  0  0  0  0  0  0
    3.3700   42.7504   51.5379 H   0  0  0  0  0  0  0  0  0  0  0  0
    6.0793   46.6526   52.7293 H   0  0  0  0  0  0  0  0  0  0  0  0
    6.3544   48.2769   53.4859 H   0  0  0  0  0  0  0  0  0  0  0  0
    7.5096   46.6350   55.3198 H   0  0  0  0  0  0  0  0  0  0  0  0
    8.8392   44.9233   54.2863 H   0  0  0  0  0  0  0  0  0  0  0  0
    7.1165   44.6982   53.7343 H   0  0  0  0  0  0  0  0  0  0  0  0
    8.8120   44.3682   51.9265 H   0  0  0  0  0  0  0  0  0  0  0  0
    7.5999   45.6779   51.6071 H   0  0  0  0  0  0  0  0  0  0  0  0
   10.4847   46.0215   52.5281 H   0  0  0  0  0  0  0  0  0  0  0  0
    9.7677   46.4499   50.9168 H   0  0  0  0  0  0  0  0  0  0  0  0
   10.1009   48.4177   52.4307 H   0  0  0  0  0  0  0  0  0  0  0  0
    8.3853   48.1452   51.9130 H   0  0  0  0  0  0  0  0  0  0  0  0
    9.6388   47.4390   54.5980 H   0  0  0  0  0  0  0  0  0  0  0  0
    8.3933   48.7193   54.2322 H   0  0  0  0  0  0  0  0  0  0  0  0
    2.8980   47.2140   56.4379 H   0  0  0  0  0  0  0  0  0  0  0  0
    0.6176   46.0737   56.8963 H   0  0  0  0  0  0  0  0  0  0  0  0
    4.5360   44.5184   49.4781 H   0  0  0  0  0  0  0  0  0  0  0  0
    6.5854   44.3962   48.0747 H   0  0  0  0  0  0  0  0  0  0  0  0
  1  2  2  0
  2  3  1  0
  3  4  2  0
  4  5  1  0
  5  6  1  0
  6  7  2  0
  7  8  1  0
  8  9  1  0
  9 10  1  0
 10 11  1  0
 11 12  1  0
 12 13  1  0
 13 14  1  0
 14 15  1  0
 15 16  1  0
  8 17  2  0
 17 18  1  0
 18 19  1  0
 19 20  2  0
 20 21  1  0
 21 22  2  0
  4 23  1  0
 23 24  2  0
 24  1  1  0
 22  6  1  0
 16 11  1  0
 21 17  1  0
  1 25  1  0
  2 26  1  0
  3 27  1  0
  5 28  1  0
 10 29  1  0
 10 30  1  0
 11 31  1  0
 12 32  1  0
 12 33  1  0
 13 34  1  0
 13 35  1  0
 14 36  1  0
 14 37  1  0
 15 38  1  0
 15 39  1  0
 16 40  1  0
 16 41  1  0
 18 42  1  0
 19 43  1  0
 23 44  1  0
 24 45  1  0
M  END
>  <meeko>  (79) 
{"is_sidechain": false}

>  <CID>  (79) 
COLIG_2A6

>  <pose_index>  (79) 
4

>  <docking_score>  (79) 
-9.01

>  <rmsd_to_best_selected>  (79) 
1.6095786946419437

>  <MWT>  (79) 
323.39999999999964

>  <TPSA>  (79) 
75.72

>  <logP>  (79) 
4.055600000000003

>  <HBD>  (79) 
2

>  <HBA>  (79) 
5

>  <SMILES>  (79) 
[H]c1c([H])c([H])c(N([H])c2nc(OC([H])([H])C3([H])C([H])([H])C([H])([H])C([H])([H])C([H])([H])C3([H])[H])c3c(n2)nc([H])n3[H])c([H])c1[H]

$$$$
COLIG_2A6_pose7
     RDKit          3D

 45 48  0  0  0  0  0  0  0  0999 V2000
    8.1270   42.8576   49.2900 C   0  0  0  0  0  0  0  0  0  0  0  0
    7.9148   42.0324   50.3894 C   0  0  0  0  0  0  0  0  0  0  0  0
    6.7087   42.0966   51.0987 C   0  0  0  0  0  0  0  0  0  0  0  0
    5.6927   42.9822   50.7239 C   0  0  0  0  0  0  0  0  0  0  0  0
    4.4671   43.0951   51.3873 N   0  0  0  0  0  0  0  0  0  0  0  0
    4.0413   43.7530   52.5406 C   0  0  0  0  0  0  0  0  0  0  0  0
    4.4446   45.0424   52.6068 N   0  0  0  0  0  0  0  0  0  0  0  0
    4.1004   45.7915   53.6717 C   0  0  0  0  0  0  0  0  0  0  0  0
    4.4913   47.1068   53.7914 O   0  0  0  0  0  0  0  0  0  0  0  0
    5.8434   47.2931   54.2243 C   0  0  0  0  0  0  0  0  0  0  0  0
    6.7295   47.8582   53.0956 C   0  0  0  0  0  0  0  0  0  0  0  0
    7.9312   48.6306   53.6623 C   0  0  0  0  0  0  0  0  0  0  0  0
    8.9996   47.7164   54.2597 C   0  0  0  0  0  0  0  0  0  0  0  0
    9.4490   46.6500   53.2647 C   0  0  0  0  0  0  0  0  0  0  0  0
    8.2703   45.8539   52.7102 C   0  0  0  0  0  0  0  0  0  0  0  0
    7.2029   46.7697   52.1150 C   0  0  0  0  0  0  0  0  0  0  0  0
    3.3500   45.2031   54.6524 C   0  0  0  0  0  0  0  0  0  0  0  0
    2.8224   45.6102   55.8429 N   0  0  0  0  0  0  0  0  0  0  0  0
    2.1571   44.5410   56.3775 C   0  0  0  0  0  0  0  0  0  0  0  0
    2.2300   43.4818   55.5988 N   0  0  0  0  0  0  0  0  0  0  0  0
    2.9736   43.8859   54.5205 C   0  0  0  0  0  0  0  0  0  0  0  0
    3.3064   43.1287   53.4669 N   0  0  0  0  0  0  0  0  0  0  0  0
    5.9307   43.8065   49.6092 C   0  0  0  0  0  0  0  0  0  0  0  0
    7.1332   43.7473   48.8976 C   0  0  0  0  0  0  0  0  0  0  0  0
    9.0751   42.8067   48.7346 H   0  0  0  0  0  0  0  0  0  0  0  0
    8.6976   41.3263   50.7032 H   0  0  0  0  0  0  0  0  0  0  0  0
    6.5576   41.4382   51.9669 H   0  0  0  0  0  0  0  0  0  0  0  0
    3.6822   42.6126   50.9764 H   0  0  0  0  0  0  0  0  0  0  0  0
    5.8533   47.9952   55.0711 H   0  0  0  0  0  0  0  0  0  0  0  0
    6.2473   46.3137   54.5205 H   0  0  0  0  0  0  0  0  0  0  0  0
    6.0987   48.5576   52.5274 H   0  0  0  0  0  0  0  0  0  0  0  0
    8.3856   49.2171   52.8501 H   0  0  0  0  0  0  0  0  0  0  0  0
    7.5570   49.2734   54.4727 H   0  0  0  0  0  0  0  0  0  0  0  0
    9.8696   48.3250   54.5474 H   0  0  0  0  0  0  0  0  0  0  0  0
    8.5674   47.2092   55.1349 H   0  0  0  0  0  0  0  0  0  0  0  0
    9.9708   47.1404   52.4297 H   0  0  0  0  0  0  0  0  0  0  0  0
   10.1137   45.9505   53.7927 H   0  0  0  0  0  0  0  0  0  0  0  0
    8.6357   45.1749   51.9257 H   0  0  0  0  0  0  0  0  0  0  0  0
    7.8164   45.2897   53.5383 H   0  0  0  0  0  0  0  0  0  0  0  0
    7.6192   47.2592   51.2222 H   0  0  0  0  0  0  0  0  0  0  0  0
    6.3313   46.1444   51.8716 H   0  0  0  0  0  0  0  0  0  0  0  0
    2.9112   46.5314   56.2497 H   0  0  0  0  0  0  0  0  0  0  0  0
    1.6260   44.5635   57.3405 H   0  0  0  0  0  0  0  0  0  0  0  0
    5.1522   44.5148   49.2895 H   0  0  0  0  0  0  0  0  0  0  0  0
    7.2924   44.4032   48.0291 H   0  0  0  0  0  0  0  0  0  0  0  0
  1  2  2  0
  2  3  1  0
  3  4  2  0
  4  5  1  0
  5  6  1  0
  6  7  2  0
  7  8  1  0
  8  9  1  0
  9 10  1  0
 10 11  1  0
 11 12  1  0
 12 13  1  0
 13 14  1  0
 14 15  1  0
 15 16  1  0
  8 17  2  0
 17 18  1  0
 18 19  1  0
 19 20  2  0
 20 21  1  0
 21 22  2  0
  4 23  1  0
 23 24  2  0
 24  1  1  0
 22  6  1  0
 16 11  1  0
 21 17  1  0
  1 25  1  0
  2 26  1  0
  3 27  1  0
  5 28  1  0
 10 29  1  0
 10 30  1  0
 11 31  1  0
 12 32  1  0
 12 33  1  0
 13 34  1  0
 13 35  1  0
 14 36  1  0
 14 37  1  0
 15 38  1  0
 15 39  1  0
 16 40  1  0
 16 41  1  0
 18 42  1  0
 19 43  1  0
 23 44  1  0
 24 45  1  0
M  END
>  <meeko>  (80) 
{"is_sidechain": false}

>  <CID>  (80) 
COLIG_2A6

>  <pose_index>  (80) 
7

>  <docking_score>  (80) 
-8.754

>  <rmsd_to_best_selected>  (80) 
1.1987943265556031

>  <MWT>  (80) 
323.39999999999964

>  <TPSA>  (80) 
75.72

>  <logP>  (80) 
4.055600000000003

>  <HBD>  (80) 
2

>  <HBA>  (80) 
5

>  <SMILES>  (80) 
[H]c1c([H])c([H])c(N([H])c2nc(OC([H])([H])C3([H])C([H])([H])C([H])([H])C([H])([H])C([H])([H])C3([H])[H])c3c(n2)nc([H])n3[H])c([H])c1[H]

$$$$
COLIG_2A6_pose10
     RDKit          3D

 45 48  0  0  0  0  0  0  0  0999 V2000
    7.9781   43.1738   48.9803 C   0  0  0  0  0  0  0  0  0  0  0  0
    7.6177   41.8848   49.3632 C   0  0  0  0  0  0  0  0  0  0  0  0
    6.7949   41.6831   50.4778 C   0  0  0  0  0  0  0  0  0  0  0  0
    6.3156   42.7597   51.2307 C   0  0  0  0  0  0  0  0  0  0  0  0
    5.4906   42.6266   52.3522 N   0  0  0  0  0  0  0  0  0  0  0  0
    4.6161   43.4806   53.0250 C   0  0  0  0  0  0  0  0  0  0  0  0
    5.2231   44.5691   53.5501 N   0  0  0  0  0  0  0  0  0  0  0  0
    4.4895   45.4751   54.2264 C   0  0  0  0  0  0  0  0  0  0  0  0
    5.0589   46.5962   54.7879 O   0  0  0  0  0  0  0  0  0  0  0  0
    5.6792   47.4860   53.8540 C   0  0  0  0  0  0  0  0  0  0  0  0
    7.0979   47.8890   54.3074 C   0  0  0  0  0  0  0  0  0  0  0  0
    7.8610   46.6901   54.8903 C   0  0  0  0  0  0  0  0  0  0  0  0
    8.3130   45.6949   53.8230 C   0  0  0  0  0  0  0  0  0  0  0  0
    9.1174   46.3773   52.7206 C   0  0  0  0  0  0  0  0  0  0  0  0
    8.3637   47.5560   52.1115 C   0  0  0  0  0  0  0  0  0  0  0  0
    7.9119   48.5490   53.1798 C   0  0  0  0  0  0  0  0  0  0  0  0
    3.1469   45.2453   54.3531 C   0  0  0  0  0  0  0  0  0  0  0  0
    2.1046   45.8989   54.9447 N   0  0  0  0  0  0  0  0  0  0  0  0
    0.9812   45.1517   54.7209 C   0  0  0  0  0  0  0  0  0  0  0  0
    1.2460   44.0675   54.0256 N   0  0  0  0  0  0  0  0  0  0  0  0
    2.5955   44.1165   53.7917 C   0  0  0  0  0  0  0  0  0  0  0  0
    3.3109   43.2074   53.1154 N   0  0  0  0  0  0  0  0  0  0  0  0
    6.6921   44.0529   50.8257 C   0  0  0  0  0  0  0  0  0  0  0  0
    7.5141   44.2614   49.7140 C   0  0  0  0  0  0  0  0  0  0  0  0
    8.6246   43.3314   48.1045 H   0  0  0  0  0  0  0  0  0  0  0  0
    7.9811   41.0209   48.7874 H   0  0  0  0  0  0  0  0  0  0  0  0
    6.5201   40.6579   50.7669 H   0  0  0  0  0  0  0  0  0  0  0  0
    5.4914   41.7290   52.8129 H   0  0  0  0  0  0  0  0  0  0  0  0
    5.7456   46.9870   52.8760 H   0  0  0  0  0  0  0  0  0  0  0  0
    5.0672   48.3978   53.7900 H   0  0  0  0  0  0  0  0  0  0  0  0
    6.9680   48.6403   55.1003 H   0  0  0  0  0  0  0  0  0  0  0  0
    8.7497   47.0640   55.4200 H   0  0  0  0  0  0  0  0  0  0  0  0
    7.1739   46.1593   55.5657 H   0  0  0  0  0  0  0  0  0  0  0  0
    8.9390   44.9242   54.2964 H   0  0  0  0  0  0  0  0  0  0  0  0
    7.4163   45.2491   53.3678 H   0  0  0  0  0  0  0  0  0  0  0  0
   10.0642   46.7422   53.1453 H   0  0  0  0  0  0  0  0  0  0  0  0
    9.2974   45.6401   51.9243 H   0  0  0  0  0  0  0  0  0  0  0  0
    9.0249   48.0732   51.4006 H   0  0  0  0  0  0  0  0  0  0  0  0
    7.4687   47.1661   51.6046 H   0  0  0  0  0  0  0  0  0  0  0  0
    8.8031   49.0200   53.6200 H   0  0  0  0  0  0  0  0  0  0  0  0
    7.2584   49.2856   52.6895 H   0  0  0  0  0  0  0  0  0  0  0  0
    2.1606   46.7706   55.4515 H   0  0  0  0  0  0  0  0  0  0  0  0
   -0.0223   45.4247   55.0792 H   0  0  0  0  0  0  0  0  0  0  0  0
    6.3313   44.9209   51.3971 H   0  0  0  0  0  0  0  0  0  0  0  0
    7.7936   45.2838   49.4197 H   0  0  0  0  0  0  0  0  0  0  0  0
  1  2  2  0
  2  3  1  0
  3  4  2  0
  4  5  1  0
  5  6  1  0
  6  7  2  0
  7  8  1  0
  8  9  1  0
  9 10  1  0
 10 11  1  0
 11 12  1  0
 12 13  1  0
 13 14  1  0
 14 15  1  0
 15 16  1  0
  8 17  2  0
 17 18  1  0
 18 19  1  0
 19 20  2  0
 20 21  1  0
 21 22  2  0
  4 23  1  0
 23 24  2  0
 24  1  1  0
 22  6  1  0
 16 11  1  0
 21 17  1  0
  1 25  1  0
  2 26  1  0
  3 27  1  0
  5 28  1  0
 10 29  1  0
 10 30  1  0
 11 31  1  0
 12 32  1  0
 12 33  1  0
 13 34  1  0
 13 35  1  0
 14 36  1  0
 14 37  1  0
 15 38  1  0
 15 39  1  0
 16 40  1  0
 16 41  1  0
 18 42  1  0
 19 43  1  0
 23 44  1  0
 24 45  1  0
M  END
>  <meeko>  (81) 
{"is_sidechain": false}

>  <CID>  (81) 
COLIG_2A6

>  <pose_index>  (81) 
10

>  <docking_score>  (81) 
-8.446

>  <rmsd_to_best_selected>  (81) 
1.4596012096223476

>  <MWT>  (81) 
323.39999999999964

>  <TPSA>  (81) 
75.72

>  <logP>  (81) 
4.055600000000003

>  <HBD>  (81) 
2

>  <HBA>  (81) 
5

>  <SMILES>  (81) 
[H]c1c([H])c([H])c(N([H])c2nc(OC([H])([H])C3([H])C([H])([H])C([H])([H])C([H])([H])C([H])([H])C3([H])[H])c3c(n2)nc([H])n3[H])c([H])c1[H]

$$$$
Z1013695804_pose10
     RDKit          3D

 41 44  0  0  0  0  0  0  0  0999 V2000
    8.5051   49.6159   54.2303 F   0  0  0  0  0  0  0  0  0  0  0  0
    8.3059   48.4481   53.6068 C   0  0  0  0  0  0  0  0  0  0  0  0
    7.0995   47.7839   53.7650 C   0  0  0  0  0  0  0  0  0  0  0  0
    6.8974   46.5649   53.1119 C   0  0  0  0  0  0  0  0  0  0  0  0
    7.8934   45.9960   52.2971 C   0  0  0  0  0  0  0  0  0  0  0  0
    7.6233   44.7760   51.6683 N   0  0  0  0  0  0  0  0  0  0  0  0
    6.4726   44.0212   51.4627 C   0  0  0  0  0  0  0  0  0  0  0  0
    5.3501   44.2355   52.1454 N   0  0  0  0  0  0  0  0  0  0  0  0
    4.2686   43.4689   51.8847 C   0  0  0  0  0  0  0  0  0  0  0  0
    3.0867   43.7264   52.6229 N   0  0  0  0  0  0  0  0  0  0  0  0
    2.0529   44.4398   51.8618 C   0  0  0  0  0  0  0  0  0  0  0  0
    2.4036   45.9269   51.7278 C   0  0  0  0  0  0  0  0  0  0  0  0
    3.0506   46.5086   52.9868 C   0  0  0  0  0  0  0  0  0  0  0  0
    2.7991   45.6388   54.2108 C   0  0  0  0  0  0  0  0  0  0  0  0
    3.2623   44.1913   54.0079 C   0  0  0  0  0  0  0  0  0  0  0  0
    4.2983   42.4421   50.9284 C   0  0  0  0  0  0  0  0  0  0  0  0
    3.2476   41.6057   50.6312 N   0  0  0  0  0  0  0  0  0  0  0  0
    3.4606   40.6656   49.6942 C   0  0  0  0  0  0  0  0  0  0  0  0
    4.6724   40.5527   49.0627 C   0  0  0  0  0  0  0  0  0  0  0  0
    5.7101   41.3691   49.3457 N   0  0  0  0  0  0  0  0  0  0  0  0
    5.5355   42.3115   50.2807 C   0  0  0  0  0  0  0  0  0  0  0  0
    6.5858   43.0780   50.5316 N   0  0  0  0  0  0  0  0  0  0  0  0
    9.0980   46.6962   52.1577 C   0  0  0  0  0  0  0  0  0  0  0  0
    9.3075   47.9160   52.8091 C   0  0  0  0  0  0  0  0  0  0  0  0
    6.3088   48.2121   54.3985 H   0  0  0  0  0  0  0  0  0  0  0  0
    5.9394   46.0391   53.2375 H   0  0  0  0  0  0  0  0  0  0  0  0
    8.4029   44.3056   51.2298 H   0  0  0  0  0  0  0  0  0  0  0  0
    1.9733   43.9963   50.8584 H   0  0  0  0  0  0  0  0  0  0  0  0
    1.0963   44.3502   52.3973 H   0  0  0  0  0  0  0  0  0  0  0  0
    3.1033   46.0470   50.8876 H   0  0  0  0  0  0  0  0  0  0  0  0
    1.4623   46.4715   51.5621 H   0  0  0  0  0  0  0  0  0  0  0  0
    4.1357   46.5879   52.8244 H   0  0  0  0  0  0  0  0  0  0  0  0
    2.6033   47.4960   53.1738 H   0  0  0  0  0  0  0  0  0  0  0  0
    3.3433   46.0668   55.0656 H   0  0  0  0  0  0  0  0  0  0  0  0
    1.7140   45.6203   54.3902 H   0  0  0  0  0  0  0  0  0  0  0  0
    4.3287   44.1235   54.2691 H   0  0  0  0  0  0  0  0  0  0  0  0
    2.6432   43.5513   54.6537 H   0  0  0  0  0  0  0  0  0  0  0  0
    2.6474   39.9740   49.4291 H   0  0  0  0  0  0  0  0  0  0  0  0
    4.8036   39.7709   48.3000 H   0  0  0  0  0  0  0  0  0  0  0  0
    9.8945   46.2790   51.5240 H   0  0  0  0  0  0  0  0  0  0  0  0
   10.2615   48.4504   52.6891 H   0  0  0  0  0  0  0  0  0  0  0  0
  1  2  1  0
  2  3  2  0
  3  4  1  0
  4  5  2  0
  5  6  1  0
  6  7  1  0
  7  8  2  0
  8  9  1  0
  9 10  1  0
 10 11  1  0
 11 12  1  0
 12 13  1  0
 13 14  1  0
 14 15  1  0
  9 16  2  0
 16 17  1  0
 17 18  2  0
 18 19  1  0
 19 20  2  0
 20 21  1  0
 21 22  2  0
  5 23  1  0
 23 24  2  0
 24  2  1  0
 22  7  1  0
 15 10  1  0
 21 16  1  0
  3 25  1  0
  4 26  1  0
  6 27  1  0
 11 28  1  0
 11 29  1  0
 12 30  1  0
 12 31  1  0
 13 32  1  0
 13 33  1  0
 14 34  1  0
 14 35  1  0
 15 36  1  0
 15 37  1  0
 18 38  1  0
 19 39  1  0
 23 40  1  0
 24 41  1  0
M  END
>  <meeko>  (82) 
{"is_sidechain": false}

>  <CID>  (82) 
Z1013695804

>  <pose_index>  (82) 
10

>  <docking_score>  (82) 
-7.895

>  <rmsd_to_best_selected>  (82) 
1.3514325043563205

>  <MWT>  (82) 
324.3629999999997

>  <TPSA>  (82) 
66.83000000000001

>  <logP>  (82) 
3.2928000000000015

>  <HBD>  (82) 
1

>  <HBA>  (82) 
6

>  <SMILES>  (82) 
[H]c1nc2nc(N([H])c3c([H])c([H])c(F)c([H])c3[H])nc(N3C([H])([H])C([H])([H])C([H])([H])C([H])([H])C3([H])[H])c2nc1[H]

$$$$
Z1013695804_pose1
     RDKit          3D

 41 44  0  0  0  0  0  0  0  0999 V2000
   10.8380   47.5430   55.1200 F   0  0  0  0  0  0  0  0  0  0  0  0
    9.9090   47.2010   54.2190 C   0  0  0  0  0  0  0  0  0  0  0  0
    8.5660   47.3120   54.5420 C   0  0  0  0  0  0  0  0  0  0  0  0
    7.6010   46.9530   53.5980 C   0  0  0  0  0  0  0  0  0  0  0  0
    7.9640   46.4770   52.3240 C   0  0  0  0  0  0  0  0  0  0  0  0
    6.9470   46.1400   51.4250 N   0  0  0  0  0  0  0  0  0  0  0  0
    6.0750   45.0620   51.3010 C   0  0  0  0  0  0  0  0  0  0  0  0
    5.0080   44.9170   52.0830 N   0  0  0  0  0  0  0  0  0  0  0  0
    4.2010   43.8500   51.8980 C   0  0  0  0  0  0  0  0  0  0  0  0
    3.0680   43.7280   52.7410 N   0  0  0  0  0  0  0  0  0  0  0  0
    1.7910   43.6700   52.0180 C   0  0  0  0  0  0  0  0  0  0  0  0
    1.3840   45.0610   51.5180 C   0  0  0  0  0  0  0  0  0  0  0  0
    1.7220   46.1800   52.5080 C   0  0  0  0  0  0  0  0  0  0  0  0
    1.9640   45.6440   53.9120 C   0  0  0  0  0  0  0  0  0  0  0  0
    3.0530   44.5660   53.9500 C   0  0  0  0  0  0  0  0  0  0  0  0
    4.4630   42.8790   50.9180 C   0  0  0  0  0  0  0  0  0  0  0  0
    3.7040   41.7560   50.6920 N   0  0  0  0  0  0  0  0  0  0  0  0
    4.1140   40.9260   49.7180 C   0  0  0  0  0  0  0  0  0  0  0  0
    5.2400   41.1940   48.9810 C   0  0  0  0  0  0  0  0  0  0  0  0
    5.9920   42.2960   49.1940 N   0  0  0  0  0  0  0  0  0  0  0  0
    5.6160   43.1400   50.1630 C   0  0  0  0  0  0  0  0  0  0  0  0
    6.3940   44.1980   50.3410 N   0  0  0  0  0  0  0  0  0  0  0  0
    9.3290   46.3810   52.0300 C   0  0  0  0  0  0  0  0  0  0  0  0
   10.3010   46.7380   52.9720 C   0  0  0  0  0  0  0  0  0  0  0  0
    8.2624   47.6797   55.5333 H   0  0  0  0  0  0  0  0  0  0  0  0
    6.5355   47.0441   53.8555 H   0  0  0  0  0  0  0  0  0  0  0  0
    6.7450   46.8060   50.6920 H   0  0  0  0  0  0  0  0  0  0  0  0
    1.8947   42.9935   51.1569 H   0  0  0  0  0  0  0  0  0  0  0  0
    1.0143   43.3010   52.7039 H   0  0  0  0  0  0  0  0  0  0  0  0
    1.9093   45.2602   50.5723 H   0  0  0  0  0  0  0  0  0  0  0  0
    0.2915   45.0561   51.3903 H   0  0  0  0  0  0  0  0  0  0  0  0
    2.6299   46.6969   52.1636 H   0  0  0  0  0  0  0  0  0  0  0  0
    0.8646   46.8679   52.5496 H   0  0  0  0  0  0  0  0  0  0  0  0
    2.2709   46.4783   54.5599 H   0  0  0  0  0  0  0  0  0  0  0  0
    1.0271   45.1846   54.2601 H   0  0  0  0  0  0  0  0  0  0  0  0
    4.0317   45.0584   54.0485 H   0  0  0  0  0  0  0  0  0  0  0  0
    2.8389   43.9089   54.8058 H   0  0  0  0  0  0  0  0  0  0  0  0
    3.5359   40.0142   49.5074 H   0  0  0  0  0  0  0  0  0  0  0  0
    5.5399   40.4891   48.1916 H   0  0  0  0  0  0  0  0  0  0  0  0
    9.6438   46.0183   51.0404 H   0  0  0  0  0  0  0  0  0  0  0  0
   11.3693   46.6518   52.7245 H   0  0  0  0  0  0  0  0  0  0  0  0
  1  2  1  0
  2  3  2  0
  3  4  1  0
  4  5  2  0
  5  6  1  0
  6  7  1  0
  7  8  2  0
  8  9  1  0
  9 10  1  0
 10 11  1  0
 11 12  1  0
 12 13  1  0
 13 14  1  0
 14 15  1  0
  9 16  2  0
 16 17  1  0
 17 18  2  0
 18 19  1  0
 19 20  2  0
 20 21  1  0
 21 22  2  0
  5 23  1  0
 23 24  2  0
 24  2  1  0
 22  7  1  0
 15 10  1  0
 21 16  1  0
  3 25  1  0
  4 26  1  0
  6 27  1  0
 11 28  1  0
 11 29  1  0
 12 30  1  0
 12 31  1  0
 13 32  1  0
 13 33  1  0
 14 34  1  0
 14 35  1  0
 15 36  1  0
 15 37  1  0
 18 38  1  0
 19 39  1  0
 23 40  1  0
 24 41  1  0
M  END
>  <meeko>  (83) 
{"is_sidechain": false}

>  <CID>  (83) 
Z1013695804

>  <pose_index>  (83) 
1

>  <docking_score>  (83) 
-9.448

>  <rmsd_to_best_selected>  (83) 
0.0

>  <MWT>  (83) 
324.3629999999997

>  <TPSA>  (83) 
66.83000000000001

>  <logP>  (83) 
3.2928000000000015

>  <HBD>  (83) 
1

>  <HBA>  (83) 
6

>  <SMILES>  (83) 
[H]c1nc2nc(N([H])c3c([H])c([H])c(F)c([H])c3[H])nc(N3C([H])([H])C([H])([H])C([H])([H])C([H])([H])C3([H])[H])c2nc1[H]

$$$$
Z1013695804_pose2
     RDKit          3D

 41 44  0  0  0  0  0  0  0  0999 V2000
    8.8102   49.7724   53.6613 F   0  0  0  0  0  0  0  0  0  0  0  0
    8.5415   48.5034   53.3323 C   0  0  0  0  0  0  0  0  0  0  0  0
    7.2318   48.1197   53.0901 C   0  0  0  0  0  0  0  0  0  0  0  0
    6.9564   46.7926   52.7480 C   0  0  0  0  0  0  0  0  0  0  0  0
    7.9835   45.8363   52.6452 C   0  0  0  0  0  0  0  0  0  0  0  0
    7.6398   44.5267   52.2931 N   0  0  0  0  0  0  0  0  0  0  0  0
    6.4825   43.9198   51.8139 C   0  0  0  0  0  0  0  0  0  0  0  0
    5.3081   44.0443   52.4275 N   0  0  0  0  0  0  0  0  0  0  0  0
    4.2250   43.4337   51.8984 C   0  0  0  0  0  0  0  0  0  0  0  0
    2.9871   43.5927   52.5705 N   0  0  0  0  0  0  0  0  0  0  0  0
    1.9989   44.3776   51.8210 C   0  0  0  0  0  0  0  0  0  0  0  0
    2.3300   45.8736   51.8829 C   0  0  0  0  0  0  0  0  0  0  0  0
    2.8716   46.3131   53.2464 C   0  0  0  0  0  0  0  0  0  0  0  0
    2.5478   45.3054   54.3410 C   0  0  0  0  0  0  0  0  0  0  0  0
    3.0516   43.8968   54.0092 C   0  0  0  0  0  0  0  0  0  0  0  0
    4.3040   42.6561   50.7324 C   0  0  0  0  0  0  0  0  0  0  0  0
    3.2522   41.9854   50.1547 N   0  0  0  0  0  0  0  0  0  0  0  0
    3.5160   41.2752   49.0440 C   0  0  0  0  0  0  0  0  0  0  0  0
    4.7797   41.2301   48.5114 C   0  0  0  0  0  0  0  0  0  0  0  0
    5.8191   41.8873   49.0703 N   0  0  0  0  0  0  0  0  0  0  0  0
    5.5930   42.5969   50.1826 C   0  0  0  0  0  0  0  0  0  0  0  0
    6.6463   43.2123   50.6992 N   0  0  0  0  0  0  0  0  0  0  0  0
    9.2945   46.2588   52.8920 C   0  0  0  0  0  0  0  0  0  0  0  0
    9.5769   47.5850   53.2361 C   0  0  0  0  0  0  0  0  0  0  0  0
    6.4158   48.8534   53.1666 H   0  0  0  0  0  0  0  0  0  0  0  0
    5.9165   46.4900   52.5554 H   0  0  0  0  0  0  0  0  0  0  0  0
    8.3664   43.8283   52.3643 H   0  0  0  0  0  0  0  0  0  0  0  0
    2.0009   44.0512   50.7706 H   0  0  0  0  0  0  0  0  0  0  0  0
    1.0078   44.2174   52.2704 H   0  0  0  0  0  0  0  0  0  0  0  0
    3.0873   46.0965   51.1169 H   0  0  0  0  0  0  0  0  0  0  0  0
    1.3937   46.4242   51.7089 H   0  0  0  0  0  0  0  0  0  0  0  0
    3.9639   46.4222   53.1761 H   0  0  0  0  0  0  0  0  0  0  0  0
    2.3923   47.2672   53.5106 H   0  0  0  0  0  0  0  0  0  0  0  0
    3.0201   45.6377   55.2772 H   0  0  0  0  0  0  0  0  0  0  0  0
    1.4531   45.2552   54.4360 H   0  0  0  0  0  0  0  0  0  0  0  0
    4.0970   43.8103   54.3403 H   0  0  0  0  0  0  0  0  0  0  0  0
    2.3986   43.1803   54.5290 H   0  0  0  0  0  0  0  0  0  0  0  0
    2.7034   40.7197   48.5530 H   0  0  0  0  0  0  0  0  0  0  0  0
    4.9520   40.6396   47.5995 H   0  0  0  0  0  0  0  0  0  0  0  0
   10.1186   45.5344   52.8139 H   0  0  0  0  0  0  0  0  0  0  0  0
   10.6137   47.8978   53.4293 H   0  0  0  0  0  0  0  0  0  0  0  0
  1  2  1  0
  2  3  2  0
  3  4  1  0
  4  5  2  0
  5  6  1  0
  6  7  1  0
  7  8  2  0
  8  9  1  0
  9 10  1  0
 10 11  1  0
 11 12  1  0
 12 13  1  0
 13 14  1  0
 14 15  1  0
  9 16  2  0
 16 17  1  0
 17 18  2  0
 18 19  1  0
 19 20  2  0
 20 21  1  0
 21 22  2  0
  5 23  1  0
 23 24  2  0
 24  2  1  0
 22  7  1  0
 15 10  1  0
 21 16  1  0
  3 25  1  0
  4 26  1  0
  6 27  1  0
 11 28  1  0
 11 29  1  0
 12 30  1  0
 12 31  1  0
 13 32  1  0
 13 33  1  0
 14 34  1  0
 14 35  1  0
 15 36  1  0
 15 37  1  0
 18 38  1  0
 19 39  1  0
 23 40  1  0
 24 41  1  0
M  END
>  <meeko>  (84) 
{"is_sidechain": false}

>  <CID>  (84) 
Z1013695804

>  <pose_index>  (84) 
2

>  <docking_score>  (84) 
-8.861

>  <rmsd_to_best_selected>  (84) 
1.5165176831169533

>  <MWT>  (84) 
324.3629999999997

>  <TPSA>  (84) 
66.83000000000001

>  <logP>  (84) 
3.2928000000000015

>  <HBD>  (84) 
1

>  <HBA>  (84) 
6

>  <SMILES>  (84) 
[H]c1nc2nc(N([H])c3c([H])c([H])c(F)c([H])c3[H])nc(N3C([H])([H])C([H])([H])C([H])([H])C([H])([H])C3([H])[H])c2nc1[H]

$$$$
Z1013695804_pose3
     RDKit          3D

 41 44  0  0  0  0  0  0  0  0999 V2000
   10.0533   48.5032   54.6566 F   0  0  0  0  0  0  0  0  0  0  0  0
    9.3160   47.8854   53.7263 C   0  0  0  0  0  0  0  0  0  0  0  0
    7.9329   47.9630   53.7820 C   0  0  0  0  0  0  0  0  0  0  0  0
    7.1693   47.3144   52.8086 C   0  0  0  0  0  0  0  0  0  0  0  0
    7.7746   46.5798   51.7720 C   0  0  0  0  0  0  0  0  0  0  0  0
    6.9503   45.9597   50.8271 N   0  0  0  0  0  0  0  0  0  0  0  0
    6.0436   44.9042   50.8696 C   0  0  0  0  0  0  0  0  0  0  0  0
    4.7597   45.0827   51.1711 N   0  0  0  0  0  0  0  0  0  0  0  0
    3.9357   44.0124   51.1838 C   0  0  0  0  0  0  0  0  0  0  0  0
    2.5727   44.2360   51.5001 N   0  0  0  0  0  0  0  0  0  0  0  0
    2.1868   45.6521   51.5102 C   0  0  0  0  0  0  0  0  0  0  0  0
    2.6907   46.3449   52.7818 C   0  0  0  0  0  0  0  0  0  0  0  0
    2.6035   45.4577   54.0259 C   0  0  0  0  0  0  0  0  0  0  0  0
    1.6507   44.2871   53.8246 C   0  0  0  0  0  0  0  0  0  0  0  0
    2.0123   43.4381   52.6021 C   0  0  0  0  0  0  0  0  0  0  0  0
    4.3956   42.7157   50.9060 C   0  0  0  0  0  0  0  0  0  0  0  0
    3.6227   41.5787   50.9273 N   0  0  0  0  0  0  0  0  0  0  0  0
    4.2371   40.4163   50.6487 C   0  0  0  0  0  0  0  0  0  0  0  0
    5.5755   40.3715   50.3524 C   0  0  0  0  0  0  0  0  0  0  0  0
    6.3428   41.4828   50.3267 N   0  0  0  0  0  0  0  0  0  0  0  0
    5.7652   42.6571   50.6080 C   0  0  0  0  0  0  0  0  0  0  0  0
    6.5628   43.7137   50.5831 N   0  0  0  0  0  0  0  0  0  0  0  0
    9.1729   46.5247   51.7442 C   0  0  0  0  0  0  0  0  0  0  0  0
    9.9440   47.1714   52.7162 C   0  0  0  0  0  0  0  0  0  0  0  0
    7.4410   48.5305   54.5858 H   0  0  0  0  0  0  0  0  0  0  0  0
    6.0721   47.3792   52.8532 H   0  0  0  0  0  0  0  0  0  0  0  0
    6.9632   46.3385   49.8898 H   0  0  0  0  0  0  0  0  0  0  0  0
    2.6217   46.1507   50.6314 H   0  0  0  0  0  0  0  0  0  0  0  0
    1.0891   45.7185   51.4840 H   0  0  0  0  0  0  0  0  0  0  0  0
    3.7415   46.6326   52.6303 H   0  0  0  0  0  0  0  0  0  0  0  0
    2.0447   47.2180   52.9566 H   0  0  0  0  0  0  0  0  0  0  0  0
    3.6056   45.0651   54.2534 H   0  0  0  0  0  0  0  0  0  0  0  0
    2.2193   46.0705   54.8547 H   0  0  0  0  0  0  0  0  0  0  0  0
    1.6831   43.6483   54.7195 H   0  0  0  0  0  0  0  0  0  0  0  0
    0.6450   44.7004   53.6580 H   0  0  0  0  0  0  0  0  0  0  0  0
    2.7552   42.6852   52.9042 H   0  0  0  0  0  0  0  0  0  0  0  0
    1.0854   42.9723   52.2361 H   0  0  0  0  0  0  0  0  0  0  0  0
    3.6554   39.4828   50.6586 H   0  0  0  0  0  0  0  0  0  0  0  0
    6.0389   39.3993   50.1286 H   0  0  0  0  0  0  0  0  0  0  0  0
    9.6750   45.9624   50.9431 H   0  0  0  0  0  0  0  0  0  0  0  0
   11.0418   47.1140   52.6797 H   0  0  0  0  0  0  0  0  0  0  0  0
  1  2  1  0
  2  3  2  0
  3  4  1  0
  4  5  2  0
  5  6  1  0
  6  7  1  0
  7  8  2  0
  8  9  1  0
  9 10  1  0
 10 11  1  0
 11 12  1  0
 12 13  1  0
 13 14  1  0
 14 15  1  0
  9 16  2  0
 16 17  1  0
 17 18  2  0
 18 19  1  0
 19 20  2  0
 20 21  1  0
 21 22  2  0
  5 23  1  0
 23 24  2  0
 24  2  1  0
 22  7  1  0
 15 10  1  0
 21 16  1  0
  3 25  1  0
  4 26  1  0
  6 27  1  0
 11 28  1  0
 11 29  1  0
 12 30  1  0
 12 31  1  0
 13 32  1  0
 13 33  1  0
 14 34  1  0
 14 35  1  0
 15 36  1  0
 15 37  1  0
 18 38  1  0
 19 39  1  0
 23 40  1  0
 24 41  1  0
M  END
>  <meeko>  (85) 
{"is_sidechain": false}

>  <CID>  (85) 
Z1013695804

>  <pose_index>  (85) 
3

>  <docking_score>  (85) 
-8.746

>  <rmsd_to_best_selected>  (85) 
1.6791376966347056

>  <MWT>  (85) 
324.3629999999997

>  <TPSA>  (85) 
66.83000000000001

>  <logP>  (85) 
3.2928000000000015

>  <HBD>  (85) 
1

>  <HBA>  (85) 
6

>  <SMILES>  (85) 
[H]c1nc2nc(N([H])c3c([H])c([H])c(F)c([H])c3[H])nc(N3C([H])([H])C([H])([H])C([H])([H])C([H])([H])C3([H])[H])c2nc1[H]

$$$$
Z1013695804_pose4
     RDKit          3D

 41 44  0  0  0  0  0  0  0  0999 V2000
    8.4704   49.5301   54.4356 F   0  0  0  0  0  0  0  0  0  0  0  0
    8.2751   48.3855   53.7688 C   0  0  0  0  0  0  0  0  0  0  0  0
    7.0096   48.0726   53.2972 C   0  0  0  0  0  0  0  0  0  0  0  0
    6.8129   46.8772   52.6025 C   0  0  0  0  0  0  0  0  0  0  0  0
    7.8726   45.9802   52.3720 C   0  0  0  0  0  0  0  0  0  0  0  0
    7.6072   44.8031   51.6656 N   0  0  0  0  0  0  0  0  0  0  0  0
    6.4553   44.0749   51.3842 C   0  0  0  0  0  0  0  0  0  0  0  0
    5.3328   44.2225   52.0847 N   0  0  0  0  0  0  0  0  0  0  0  0
    4.2496   43.4883   51.7481 C   0  0  0  0  0  0  0  0  0  0  0  0
    3.0682   43.6734   52.5070 N   0  0  0  0  0  0  0  0  0  0  0  0
    2.0730   44.5374   51.8605 C   0  0  0  0  0  0  0  0  0  0  0  0
    2.4805   46.0113   51.9643 C   0  0  0  0  0  0  0  0  0  0  0  0
    3.1303   46.3626   53.3052 C   0  0  0  0  0  0  0  0  0  0  0  0
    2.8299   45.3218   54.3745 C   0  0  0  0  0  0  0  0  0  0  0  0
    3.2410   43.9080   53.9497 C   0  0  0  0  0  0  0  0  0  0  0  0
    4.2776   42.5620   50.6930 C   0  0  0  0  0  0  0  0  0  0  0  0
    3.2252   41.7629   50.3126 N   0  0  0  0  0  0  0  0  0  0  0  0
    3.4357   40.9213   49.2871 C   0  0  0  0  0  0  0  0  0  0  0  0
    4.6489   40.8689   48.6463 C   0  0  0  0  0  0  0  0  0  0  0  0
    5.6876   41.6514   49.0114 N   0  0  0  0  0  0  0  0  0  0  0  0
    5.5144   42.4949   50.0365 C   0  0  0  0  0  0  0  0  0  0  0  0
    6.5672   43.2303   50.3631 N   0  0  0  0  0  0  0  0  0  0  0  0
    9.1379   46.3299   52.8596 C   0  0  0  0  0  0  0  0  0  0  0  0
    9.3421   47.5254   53.5567 C   0  0  0  0  0  0  0  0  0  0  0  0
    6.1679   48.7598   53.4686 H   0  0  0  0  0  0  0  0  0  0  0  0
    5.8084   46.6315   52.2274 H   0  0  0  0  0  0  0  0  0  0  0  0
    8.3945   44.3496   51.2199 H   0  0  0  0  0  0  0  0  0  0  0  0
    1.9902   44.2602   50.7993 H   0  0  0  0  0  0  0  0  0  0  0  0
    1.1068   44.4027   52.3687 H   0  0  0  0  0  0  0  0  0  0  0  0
    3.1966   46.2338   51.1595 H   0  0  0  0  0  0  0  0  0  0  0  0
    1.5630   46.6117   51.8776 H   0  0  0  0  0  0  0  0  0  0  0  0
    4.2198   46.4249   53.1663 H   0  0  0  0  0  0  0  0  0  0  0  0
    2.7165   47.3246   53.6416 H   0  0  0  0  0  0  0  0  0  0  0  0
    3.3782   45.5884   55.2901 H   0  0  0  0  0  0  0  0  0  0  0  0
    1.7425   45.3178   54.5406 H   0  0  0  0  0  0  0  0  0  0  0  0
    4.3002   43.7581   54.2059 H   0  0  0  0  0  0  0  0  0  0  0  0
    2.5886   43.1995   54.4811 H   0  0  0  0  0  0  0  0  0  0  0  0
    2.6208   40.2617   48.9543 H   0  0  0  0  0  0  0  0  0  0  0  0
    4.7791   40.1674   47.8090 H   0  0  0  0  0  0  0  0  0  0  0  0
    9.9874   45.6517   52.6912 H   0  0  0  0  0  0  0  0  0  0  0  0
   10.3430   47.7817   53.9343 H   0  0  0  0  0  0  0  0  0  0  0  0
  1  2  1  0
  2  3  2  0
  3  4  1  0
  4  5  2  0
  5  6  1  0
  6  7  1  0
  7  8  2  0
  8  9  1  0
  9 10  1  0
 10 11  1  0
 11 12  1  0
 12 13  1  0
 13 14  1  0
 14 15  1  0
  9 16  2  0
 16 17  1  0
 17 18  2  0
 18 19  1  0
 19 20  2  0
 20 21  1  0
 21 22  2  0
  5 23  1  0
 23 24  2  0
 24  2  1  0
 22  7  1  0
 15 10  1  0
 21 16  1  0
  3 25  1  0
  4 26  1  0
  6 27  1  0
 11 28  1  0
 11 29  1  0
 12 30  1  0
 12 31  1  0
 13 32  1  0
 13 33  1  0
 14 34  1  0
 14 35  1  0
 15 36  1  0
 15 37  1  0
 18 38  1  0
 19 39  1  0
 23 40  1  0
 24 41  1  0
M  END
>  <meeko>  (86) 
{"is_sidechain": false}

>  <CID>  (86) 
Z1013695804

>  <pose_index>  (86) 
4

>  <docking_score>  (86) 
-8.606

>  <rmsd_to_best_selected>  (86) 
1.512288035891569

>  <MWT>  (86) 
324.3629999999997

>  <TPSA>  (86) 
66.83000000000001

>  <logP>  (86) 
3.2928000000000015

>  <HBD>  (86) 
1

>  <HBA>  (86) 
6

>  <SMILES>  (86) 
[H]c1nc2nc(N([H])c3c([H])c([H])c(F)c([H])c3[H])nc(N3C([H])([H])C([H])([H])C([H])([H])C([H])([H])C3([H])[H])c2nc1[H]

$$$$
Z1013695804_pose6
     RDKit          3D

 41 44  0  0  0  0  0  0  0  0999 V2000
    9.1347   48.8376   55.1089 F   0  0  0  0  0  0  0  0  0  0  0  0
    8.7034   48.0307   54.1309 C   0  0  0  0  0  0  0  0  0  0  0  0
    7.3540   47.9955   53.8160 C   0  0  0  0  0  0  0  0  0  0  0  0
    6.9098   47.1510   52.7960 C   0  0  0  0  0  0  0  0  0  0  0  0
    7.8044   46.3323   52.0815 C   0  0  0  0  0  0  0  0  0  0  0  0
    7.2940   45.5137   51.0688 N   0  0  0  0  0  0  0  0  0  0  0  0
    6.2793   44.5624   51.0035 C   0  0  0  0  0  0  0  0  0  0  0  0
    5.2819   44.5275   51.8833 N   0  0  0  0  0  0  0  0  0  0  0  0
    4.3264   43.5804   51.7522 C   0  0  0  0  0  0  0  0  0  0  0  0
    3.2728   43.5734   52.6993 N   0  0  0  0  0  0  0  0  0  0  0  0
    1.9818   44.0152   52.1574 C   0  0  0  0  0  0  0  0  0  0  0  0
    1.9512   45.5403   51.9963 C   0  0  0  0  0  0  0  0  0  0  0  0
    2.6662   46.2788   53.1303 C   0  0  0  0  0  0  0  0  0  0  0  0
    2.8501   45.3984   54.3585 C   0  0  0  0  0  0  0  0  0  0  0  0
    3.5875   44.0923   54.0394 C   0  0  0  0  0  0  0  0  0  0  0  0
    4.3659   42.6215   50.7275 C   0  0  0  0  0  0  0  0  0  0  0  0
    3.4464   41.6140   50.5496 N   0  0  0  0  0  0  0  0  0  0  0  0
    3.6500   40.7753   49.5190 C   0  0  0  0  0  0  0  0  0  0  0  0
    4.7265   40.9249   48.6824 C   0  0  0  0  0  0  0  0  0  0  0  0
    5.6336   41.9113   48.8476 N   0  0  0  0  0  0  0  0  0  0  0  0
    5.4663   42.7604   49.8692 C   0  0  0  0  0  0  0  0  0  0  0  0
    6.3894   43.7014   49.9959 N   0  0  0  0  0  0  0  0  0  0  0  0
    9.1605   46.3963   52.4234 C   0  0  0  0  0  0  0  0  0  0  0  0
    9.6120   47.2391   53.4454 C   0  0  0  0  0  0  0  0  0  0  0  0
    6.6395   48.6268   54.3644 H   0  0  0  0  0  0  0  0  0  0  0  0
    5.8390   47.1253   52.5459 H   0  0  0  0  0  0  0  0  0  0  0  0
    7.7058   45.6114   50.1507 H   0  0  0  0  0  0  0  0  0  0  0  0
    1.8234   43.5456   51.1754 H   0  0  0  0  0  0  0  0  0  0  0  0
    1.1861   43.7187   52.8567 H   0  0  0  0  0  0  0  0  0  0  0  0
    2.4395   45.8018   51.0459 H   0  0  0  0  0  0  0  0  0  0  0  0
    0.8962   45.8510   52.0168 H   0  0  0  0  0  0  0  0  0  0  0  0
    3.6553   46.6031   52.7747 H   0  0  0  0  0  0  0  0  0  0  0  0
    2.0451   47.1394   53.4196 H   0  0  0  0  0  0  0  0  0  0  0  0
    3.4294   45.9563   55.1090 H   0  0  0  0  0  0  0  0  0  0  0  0
    1.8502   45.1348   54.7337 H   0  0  0  0  0  0  0  0  0  0  0  0
    4.6703   44.2761   54.0999 H   0  0  0  0  0  0  0  0  0  0  0  0
    3.2601   43.3395   54.7716 H   0  0  0  0  0  0  0  0  0  0  0  0
    2.9400   39.9536   49.3434 H   0  0  0  0  0  0  0  0  0  0  0  0
    4.8551   40.2181   47.8495 H   0  0  0  0  0  0  0  0  0  0  0  0
    9.8846   45.7725   51.8787 H   0  0  0  0  0  0  0  0  0  0  0  0
   10.6808   47.2732   53.7031 H   0  0  0  0  0  0  0  0  0  0  0  0
  1  2  1  0
  2  3  2  0
  3  4  1  0
  4  5  2  0
  5  6  1  0
  6  7  1  0
  7  8  2  0
  8  9  1  0
  9 10  1  0
 10 11  1  0
 11 12  1  0
 12 13  1  0
 13 14  1  0
 14 15  1  0
  9 16  2  0
 16 17  1  0
 17 18  2  0
 18 19  1  0
 19 20  2  0
 20 21  1  0
 21 22  2  0
  5 23  1  0
 23 24  2  0
 24  2  1  0
 22  7  1  0
 15 10  1  0
 21 16  1  0
  3 25  1  0
  4 26  1  0
  6 27  1  0
 11 28  1  0
 11 29  1  0
 12 30  1  0
 12 31  1  0
 13 32  1  0
 13 33  1  0
 14 34  1  0
 14 35  1  0
 15 36  1  0
 15 37  1  0
 18 38  1  0
 19 39  1  0
 23 40  1  0
 24 41  1  0
M  END
>  <meeko>  (87) 
{"is_sidechain": false}

>  <CID>  (87) 
Z1013695804

>  <pose_index>  (87) 
6

>  <docking_score>  (87) 
-8.347

>  <rmsd_to_best_selected>  (87) 
1.0120116333264453

>  <MWT>  (87) 
324.3629999999997

>  <TPSA>  (87) 
66.83000000000001

>  <logP>  (87) 
3.2928000000000015

>  <HBD>  (87) 
1

>  <HBA>  (87) 
6

>  <SMILES>  (87) 
[H]c1nc2nc(N([H])c3c([H])c([H])c(F)c([H])c3[H])nc(N3C([H])([H])C([H])([H])C([H])([H])C([H])([H])C3([H])[H])c2nc1[H]

$$$$
Z1013695804_pose9
     RDKit          3D

 41 44  0  0  0  0  0  0  0  0999 V2000
    8.8834   49.8782   53.7343 F   0  0  0  0  0  0  0  0  0  0  0  0
    8.5488   48.7235   53.1458 C   0  0  0  0  0  0  0  0  0  0  0  0
    9.4725   48.0680   52.3463 C   0  0  0  0  0  0  0  0  0  0  0  0
    9.1172   46.8635   51.7331 C   0  0  0  0  0  0  0  0  0  0  0  0
    7.8394   46.3016   51.9095 C   0  0  0  0  0  0  0  0  0  0  0  0
    7.5512   45.0900   51.2717 N   0  0  0  0  0  0  0  0  0  0  0  0
    6.4158   44.2940   51.1617 C   0  0  0  0  0  0  0  0  0  0  0  0
    5.1956   44.7569   51.4237 N   0  0  0  0  0  0  0  0  0  0  0  0
    4.1369   43.9277   51.2869 C   0  0  0  0  0  0  0  0  0  0  0  0
    2.8509   44.4519   51.5651 N   0  0  0  0  0  0  0  0  0  0  0  0
    2.8306   45.9052   51.7722 C   0  0  0  0  0  0  0  0  0  0  0  0
    3.3783   46.2656   53.1578 C   0  0  0  0  0  0  0  0  0  0  0  0
    2.9641   45.2714   54.2464 C   0  0  0  0  0  0  0  0  0  0  0  0
    1.7705   44.4268   53.8226 C   0  0  0  0  0  0  0  0  0  0  0  0
    2.0148   43.6847   52.5032 C   0  0  0  0  0  0  0  0  0  0  0  0
    4.2878   42.5885   50.8936 C   0  0  0  0  0  0  0  0  0  0  0  0
    3.2625   41.6817   50.7612 N   0  0  0  0  0  0  0  0  0  0  0  0
    3.5938   40.4336   50.3878 C   0  0  0  0  0  0  0  0  0  0  0  0
    4.8993   40.0862   50.1473 C   0  0  0  0  0  0  0  0  0  0  0  0
    5.9131   40.9694   50.2734 N   0  0  0  0  0  0  0  0  0  0  0  0
    5.6191   42.2194   50.6521 C   0  0  0  0  0  0  0  0  0  0  0  0
    6.6489   43.0432   50.7737 N   0  0  0  0  0  0  0  0  0  0  0  0
    6.9328   46.9883   52.7264 C   0  0  0  0  0  0  0  0  0  0  0  0
    7.2814   48.1949   53.3425 C   0  0  0  0  0  0  0  0  0  0  0  0
   10.4762   48.4923   52.1958 H   0  0  0  0  0  0  0  0  0  0  0  0
    9.8515   46.3441   51.0998 H   0  0  0  0  0  0  0  0  0  0  0  0
    8.2982   44.6661   50.7372 H   0  0  0  0  0  0  0  0  0  0  0  0
    3.4509   46.3878   51.0026 H   0  0  0  0  0  0  0  0  0  0  0  0
    1.7907   46.2567   51.7019 H   0  0  0  0  0  0  0  0  0  0  0  0
    4.4767   46.2885   53.1047 H   0  0  0  0  0  0  0  0  0  0  0  0
    2.9577   47.2445   53.4315 H   0  0  0  0  0  0  0  0  0  0  0  0
    3.8128   44.6051   54.4603 H   0  0  0  0  0  0  0  0  0  0  0  0
    2.6746   45.8456   55.1388 H   0  0  0  0  0  0  0  0  0  0  0  0
    1.5643   43.6872   54.6103 H   0  0  0  0  0  0  0  0  0  0  0  0
    0.9180   45.1053   53.6715 H   0  0  0  0  0  0  0  0  0  0  0  0
    2.5175   42.7315   52.7237 H   0  0  0  0  0  0  0  0  0  0  0  0
    1.0369   43.5284   52.0245 H   0  0  0  0  0  0  0  0  0  0  0  0
    2.8038   39.6768   50.2729 H   0  0  0  0  0  0  0  0  0  0  0  0
    5.1276   39.0544   49.8419 H   0  0  0  0  0  0  0  0  0  0  0  0
    5.9277   46.5711   52.8867 H   0  0  0  0  0  0  0  0  0  0  0  0
    6.5550   48.7213   53.9791 H   0  0  0  0  0  0  0  0  0  0  0  0
  1  2  1  0
  2  3  2  0
  3  4  1  0
  4  5  2  0
  5  6  1  0
  6  7  1  0
  7  8  2  0
  8  9  1  0
  9 10  1  0
 10 11  1  0
 11 12  1  0
 12 13  1  0
 13 14  1  0
 14 15  1  0
  9 16  2  0
 16 17  1  0
 17 18  2  0
 18 19  1  0
 19 20  2  0
 20 21  1  0
 21 22  2  0
  5 23  1  0
 23 24  2  0
 24  2  1  0
 22  7  1  0
 15 10  1  0
 21 16  1  0
  3 25  1  0
  4 26  1  0
  6 27  1  0
 11 28  1  0
 11 29  1  0
 12 30  1  0
 12 31  1  0
 13 32  1  0
 13 33  1  0
 14 34  1  0
 14 35  1  0
 15 36  1  0
 15 37  1  0
 18 38  1  0
 19 39  1  0
 23 40  1  0
 24 41  1  0
M  END
>  <meeko>  (88) 
{"is_sidechain": false}

>  <CID>  (88) 
Z1013695804

>  <pose_index>  (88) 
9

>  <docking_score>  (88) 
-8.135

>  <rmsd_to_best_selected>  (88) 
1.883261588071226

>  <MWT>  (88) 
324.3629999999997

>  <TPSA>  (88) 
66.83000000000001

>  <logP>  (88) 
3.2928000000000015

>  <HBD>  (88) 
1

>  <HBA>  (88) 
6

>  <SMILES>  (88) 
[H]c1nc2nc(N([H])c3c([H])c([H])c(F)c([H])c3[H])nc(N3C([H])([H])C([H])([H])C([H])([H])C([H])([H])C3([H])[H])c2nc1[H]

$$$$
Z1039088436_pose1
     RDKit          3D

 48 51  0  0  0  0  0  0  0  0999 V2000
    3.2670   42.6480   51.7710 C   0  0  0  0  0  0  0  0  0  0  0  0
    3.5180   43.6240   52.6720 N   0  0  0  0  0  0  0  0  0  0  0  0
    2.5490   44.5490   52.9270 C   0  0  0  0  0  0  0  0  0  0  0  0
    2.7650   45.5510   53.8780 N   0  0  0  0  0  0  0  0  0  0  0  0
    3.1990   46.8340   53.3300 C   0  0  0  0  0  0  0  0  0  0  0  0
    4.6850   46.7600   52.9790 C   0  0  0  0  0  0  0  0  0  0  0  0
    5.5400   46.3050   54.1810 C   0  0  0  0  0  0  0  0  0  0  0  0
    7.0070   46.0890   53.7700 C   0  0  0  0  0  0  0  0  0  0  0  0
    7.6500   47.3690   53.2450 N   0  0  0  0  0  4  0  0  0  0  0  0
    8.0470   47.3160   51.7820 C   0  0  0  0  0  0  0  0  0  0  0  0
    9.5480   47.1090   51.5980 C   0  0  0  0  0  0  0  0  0  0  0  0
   10.1740   46.2960   52.7200 C   0  0  0  0  0  0  0  0  0  0  0  0
    9.9670   46.9660   54.0770 C   0  0  0  0  0  0  0  0  0  0  0  0
    8.7570   47.8930   54.1230 C   0  0  0  0  0  0  0  0  0  0  0  0
    4.9590   45.0830   54.9190 C   0  0  0  0  0  0  0  0  0  0  0  0
    3.4440   45.1590   55.1120 C   0  0  0  0  0  0  0  0  0  0  0  0
    1.3460   44.4440   52.1950 C   0  0  0  0  0  0  0  0  0  0  0  0
    0.0990   45.1330   52.1510 C   0  0  0  0  0  0  0  0  0  0  0  0
   -0.6920   44.5200   51.2030 C   0  0  0  0  0  0  0  0  0  0  0  0
    0.0210   43.4720   50.6800 N   0  0  0  0  0  0  0  0  0  0  0  0
    1.2520   43.4100   51.2760 C   0  0  0  0  0  0  0  0  0  0  0  0
    2.1810   42.4830   51.0070 N   0  0  0  0  0  0  0  0  0  0  0  0
    4.0572   41.8923   51.6504 H   0  0  0  0  0  0  0  0  0  0  0  0
    2.6187   47.0610   52.4235 H   0  0  0  0  0  0  0  0  0  0  0  0
    3.0368   47.6258   54.0761 H   0  0  0  0  0  0  0  0  0  0  0  0
    4.8203   46.0437   52.1553 H   0  0  0  0  0  0  0  0  0  0  0  0
    5.0164   47.7676   52.6878 H   0  0  0  0  0  0  0  0  0  0  0  0
    5.5110   47.1272   54.9111 H   0  0  0  0  0  0  0  0  0  0  0  0
    7.5734   45.7411   54.6464 H   0  0  0  0  0  0  0  0  0  0  0  0
    7.0261   45.3438   52.9611 H   0  0  0  0  0  0  0  0  0  0  0  0
    6.9190   48.0970   53.2830 H   0  0  0  0  0  0  0  0  0  0  0  0
    7.5131   46.4836   51.3002 H   0  0  0  0  0  0  0  0  0  0  0  0
    7.7811   48.2807   51.3252 H   0  0  0  0  0  0  0  0  0  0  0  0
    9.7159   46.5825   50.6469 H   0  0  0  0  0  0  0  0  0  0  0  0
   10.0219   48.1017   51.6049 H   0  0  0  0  0  0  0  0  0  0  0  0
    9.7118   45.2980   52.7395 H   0  0  0  0  0  0  0  0  0  0  0  0
   11.2553   46.2222   52.5320 H   0  0  0  0  0  0  0  0  0  0  0  0
    9.8323   46.1807   54.8354 H   0  0  0  0  0  0  0  0  0  0  0  0
   10.8552   47.5859   54.2691 H   0  0  0  0  0  0  0  0  0  0  0  0
    8.3941   47.9617   55.1591 H   0  0  0  0  0  0  0  0  0  0  0  0
    9.0583   48.8857   53.7572 H   0  0  0  0  0  0  0  0  0  0  0  0
    5.1922   44.1796   54.3364 H   0  0  0  0  0  0  0  0  0  0  0  0
    5.4148   45.0589   55.9198 H   0  0  0  0  0  0  0  0  0  0  0  0
    3.0738   44.1717   55.4254 H   0  0  0  0  0  0  0  0  0  0  0  0
    3.2317   45.9187   55.8787 H   0  0  0  0  0  0  0  0  0  0  0  0
   -0.1825   46.0010   52.7653 H   0  0  0  0  0  0  0  0  0  0  0  0
   -1.7117   44.8179   50.9175 H   0  0  0  0  0  0  0  0  0  0  0  0
   -0.3010   42.8170   49.9810 H   0  0  0  0  0  0  0  0  0  0  0  0
  1  2  2  0
  2  3  1  0
  3  4  1  0
  4  5  1  0
  5  6  1  0
  6  7  1  0
  7  8  1  0
  8  9  1  0
  9 10  1  0
 10 11  1  0
 11 12  1  0
 12 13  1  0
 13 14  1  0
  7 15  1  0
 15 16  1  0
  3 17  2  0
 17 18  1  0
 18 19  2  0
 19 20  1  0
 20 21  1  0
 21 22  2  0
 22  1  1  0
 16  4  1  0
 21 17  1  0
 14  9  1  0
  1 23  1  0
  5 24  1  0
  5 25  1  0
  6 26  1  0
  6 27  1  0
  7 28  1  0
  8 29  1  0
  8 30  1  0
  9 31  1  0
 10 32  1  0
 10 33  1  0
 11 34  1  0
 11 35  1  0
 12 36  1  0
 12 37  1  0
 13 38  1  0
 13 39  1  0
 14 40  1  0
 14 41  1  0
 15 42  1  0
 15 43  1  0
 16 44  1  0
 16 45  1  0
 18 46  1  0
 19 47  1  0
 20 48  1  0
M  CHG  1   9   1
M  END
>  <meeko>  (89) 
{"is_sidechain": false}

>  <CID>  (89) 
Z1039088436

>  <pose_index>  (89) 
1

>  <docking_score>  (89) 
-8.479

>  <rmsd_to_best_selected>  (89) 
0.0

>  <MWT>  (89) 
300.4299999999995

>  <TPSA>  (89) 
49.25

>  <logP>  (89) 
1.2430999999999994

>  <HBD>  (89) 
2

>  <HBA>  (89) 
3

>  <SMILES>  (89) 
[H]c1nc(N2C([H])([H])C([H])([H])C([H])(C([H])([H])[N+]3([H])C([H])([H])C([H])([H])C([H])([H])C([H])([H])C3([H])[H])C([H])([H])C2([H])[H])c2c([H])c([H])n([H])c2n1

$$$$
Z1039088436_pose2
     RDKit          3D

 48 51  0  0  0  0  0  0  0  0999 V2000
    2.6141   43.8324   50.4865 C   0  0  0  0  0  0  0  0  0  0  0  0
    3.1226   44.6932   51.3964 N   0  0  0  0  0  0  0  0  0  0  0  0
    2.4068   44.9544   52.5273 C   0  0  0  0  0  0  0  0  0  0  0  0
    2.9210   45.8138   53.5030 N   0  0  0  0  0  0  0  0  0  0  0  0
    3.3497   47.1195   53.0062 C   0  0  0  0  0  0  0  0  0  0  0  0
    4.7099   46.9806   52.3228 C   0  0  0  0  0  0  0  0  0  0  0  0
    5.7560   46.3214   53.2468 C   0  0  0  0  0  0  0  0  0  0  0  0
    7.0704   46.0505   52.4951 C   0  0  0  0  0  0  0  0  0  0  0  0
    7.9796   47.2761   52.4705 N   0  0  0  0  0  4  0  0  0  0  0  0
    9.3345   47.0372   51.8294 C   0  0  0  0  0  0  0  0  0  0  0  0
   10.4443   46.8829   52.8651 C   0  0  0  0  0  0  0  0  0  0  0  0
    9.9564   46.2699   54.1683 C   0  0  0  0  0  0  0  0  0  0  0  0
    8.8521   47.1125   54.8020 C   0  0  0  0  0  0  0  0  0  0  0  0
    8.0885   47.9736   53.8011 C   0  0  0  0  0  0  0  0  0  0  0  0
    5.2306   45.0633   53.9674 C   0  0  0  0  0  0  0  0  0  0  0  0
    3.8077   45.2257   54.5038 C   0  0  0  0  0  0  0  0  0  0  0  0
    1.1482   44.3279   52.6541 C   0  0  0  0  0  0  0  0  0  0  0  0
    0.1116   44.2794   53.6323 C   0  0  0  0  0  0  0  0  0  0  0  0
   -0.8853   43.4553   53.1542 C   0  0  0  0  0  0  0  0  0  0  0  0
   -0.4852   42.9864   51.9292 N   0  0  0  0  0  0  0  0  0  0  0  0
    0.7448   43.4999   51.6182 C   0  0  0  0  0  0  0  0  0  0  0  0
    1.4258   43.2183   50.4995 N   0  0  0  0  0  0  0  0  0  0  0  0
    3.2603   43.6083   49.6251 H   0  0  0  0  0  0  0  0  0  0  0  0
    2.6123   47.4971   52.2826 H   0  0  0  0  0  0  0  0  0  0  0  0
    3.4310   47.8241   53.8470 H   0  0  0  0  0  0  0  0  0  0  0  0
    4.5927   46.3621   51.4207 H   0  0  0  0  0  0  0  0  0  0  0  0
    5.0677   47.9894   52.0694 H   0  0  0  0  0  0  0  0  0  0  0  0
    5.9669   47.0484   54.0449 H   0  0  0  0  0  0  0  0  0  0  0  0
    7.6005   45.2253   52.9931 H   0  0  0  0  0  0  0  0  0  0  0  0
    6.8197   45.7933   51.4553 H   0  0  0  0  0  0  0  0  0  0  0  0
    7.5239   47.9622   51.8508 H   0  0  0  0  0  0  0  0  0  0  0  0
    9.2835   46.1190   51.2257 H   0  0  0  0  0  0  0  0  0  0  0  0
    9.5726   47.9130   51.2079 H   0  0  0  0  0  0  0  0  0  0  0  0
   11.2289   46.2363   52.4451 H   0  0  0  0  0  0  0  0  0  0  0  0
   10.8233   47.8896   53.0952 H   0  0  0  0  0  0  0  0  0  0  0  0
    9.5655   45.2620   53.9653 H   0  0  0  0  0  0  0  0  0  0  0  0
   10.8035   46.2267   54.8687 H   0  0  0  0  0  0  0  0  0  0  0  0
    8.1380   46.4359   55.2943 H   0  0  0  0  0  0  0  0  0  0  0  0
    9.3377   47.7981   55.5120 H   0  0  0  0  0  0  0  0  0  0  0  0
    7.0782   48.1688   54.1899 H   0  0  0  0  0  0  0  0  0  0  0  0
    8.6333   48.9189   53.6606 H   0  0  0  0  0  0  0  0  0  0  0  0
    5.2427   44.2233   53.2574 H   0  0  0  0  0  0  0  0  0  0  0  0
    5.8869   44.8838   54.8316 H   0  0  0  0  0  0  0  0  0  0  0  0
    3.4185   44.2371   54.7890 H   0  0  0  0  0  0  0  0  0  0  0  0
    3.8416   45.8994   55.3726 H   0  0  0  0  0  0  0  0  0  0  0  0
    0.1079   44.8063   54.5979 H   0  0  0  0  0  0  0  0  0  0  0  0
   -1.8308   43.2170   53.6635 H   0  0  0  0  0  0  0  0  0  0  0  0
   -0.9920   42.3401   51.3398 H   0  0  0  0  0  0  0  0  0  0  0  0
  1  2  2  0
  2  3  1  0
  3  4  1  0
  4  5  1  0
  5  6  1  0
  6  7  1  0
  7  8  1  0
  8  9  1  0
  9 10  1  0
 10 11  1  0
 11 12  1  0
 12 13  1  0
 13 14  1  0
  7 15  1  0
 15 16  1  0
  3 17  2  0
 17 18  1  0
 18 19  2  0
 19 20  1  0
 20 21  1  0
 21 22  2  0
 22  1  1  0
 16  4  1  0
 21 17  1  0
 14  9  1  0
  1 23  1  0
  5 24  1  0
  5 25  1  0
  6 26  1  0
  6 27  1  0
  7 28  1  0
  8 29  1  0
  8 30  1  0
  9 31  1  0
 10 32  1  0
 10 33  1  0
 11 34  1  0
 11 35  1  0
 12 36  1  0
 12 37  1  0
 13 38  1  0
 13 39  1  0
 14 40  1  0
 14 41  1  0
 15 42  1  0
 15 43  1  0
 16 44  1  0
 16 45  1  0
 18 46  1  0
 19 47  1  0
 20 48  1  0
M  CHG  1   9   1
M  END
>  <meeko>  (90) 
{"is_sidechain": false}

>  <CID>  (90) 
Z1039088436

>  <pose_index>  (90) 
2

>  <docking_score>  (90) 
-8.434

>  <rmsd_to_best_selected>  (90) 
1.478174261977005

>  <MWT>  (90) 
300.4299999999995

>  <TPSA>  (90) 
49.25

>  <logP>  (90) 
1.2430999999999994

>  <HBD>  (90) 
2

>  <HBA>  (90) 
3

>  <SMILES>  (90) 
[H]c1nc(N2C([H])([H])C([H])([H])C([H])(C([H])([H])[N+]3([H])C([H])([H])C([H])([H])C([H])([H])C([H])([H])C3([H])[H])C([H])([H])C2([H])[H])c2c([H])c([H])n([H])c2n1

$$$$
Z1039088436_pose3
     RDKit          3D

 48 51  0  0  0  0  0  0  0  0999 V2000
    2.9225   43.9537   50.4142 C   0  0  0  0  0  0  0  0  0  0  0  0
    3.2214   44.8579   51.3723 N   0  0  0  0  0  0  0  0  0  0  0  0
    2.3833   44.9853   52.4419 C   0  0  0  0  0  0  0  0  0  0  0  0
    2.6816   45.8879   53.4670 N   0  0  0  0  0  0  0  0  0  0  0  0
    3.0043   47.2409   53.0188 C   0  0  0  0  0  0  0  0  0  0  0  0
    4.4371   47.2725   52.4894 C   0  0  0  0  0  0  0  0  0  0  0  0
    5.4475   46.7305   53.5214 C   0  0  0  0  0  0  0  0  0  0  0  0
    6.8593   46.6267   52.9184 C   0  0  0  0  0  0  0  0  0  0  0  0
    7.9471   46.7679   53.9782 N   0  0  0  0  0  4  0  0  0  0  0  0
    8.6211   48.1269   54.0065 C   0  0  0  0  0  0  0  0  0  0  0  0
    9.9974   48.1037   53.3468 C   0  0  0  0  0  0  0  0  0  0  0  0
   10.0974   47.0839   52.2238 C   0  0  0  0  0  0  0  0  0  0  0  0
    9.8039   45.6711   52.7240 C   0  0  0  0  0  0  0  0  0  0  0  0
    8.9398   45.6337   53.9795 C   0  0  0  0  0  0  0  0  0  0  0  0
    5.0006   45.4108   54.1814 C   0  0  0  0  0  0  0  0  0  0  0  0
    3.5192   45.3964   54.5593 C   0  0  0  0  0  0  0  0  0  0  0  0
    1.2261   44.1773   52.4542 C   0  0  0  0  0  0  0  0  0  0  0  0
    0.1316   43.9534   53.3404 C   0  0  0  0  0  0  0  0  0  0  0  0
   -0.6896   43.0040   52.7699 C   0  0  0  0  0  0  0  0  0  0  0  0
   -0.1257   42.6279   51.5784 N   0  0  0  0  0  0  0  0  0  0  0  0
    1.0362   43.3242   51.3783 C   0  0  0  0  0  0  0  0  0  0  0  0
    1.8411   43.1714   50.3187 N   0  0  0  0  0  0  0  0  0  0  0  0
    3.6638   43.8467   49.6085 H   0  0  0  0  0  0  0  0  0  0  0  0
    2.3106   47.5374   52.2182 H   0  0  0  0  0  0  0  0  0  0  0  0
    2.9092   47.9398   53.8630 H   0  0  0  0  0  0  0  0  0  0  0  0
    4.4932   46.6561   51.5800 H   0  0  0  0  0  0  0  0  0  0  0  0
    4.6975   48.3200   52.2771 H   0  0  0  0  0  0  0  0  0  0  0  0
    5.4826   47.4679   54.3369 H   0  0  0  0  0  0  0  0  0  0  0  0
    6.9651   45.6470   52.4296 H   0  0  0  0  0  0  0  0  0  0  0  0
    6.9807   47.4478   52.1965 H   0  0  0  0  0  0  0  0  0  0  0  0
    7.4724   46.7016   54.8912 H   0  0  0  0  0  0  0  0  0  0  0  0
    7.9850   48.8486   53.4731 H   0  0  0  0  0  0  0  0  0  0  0  0
    8.7571   48.4137   55.0597 H   0  0  0  0  0  0  0  0  0  0  0  0
   10.2058   49.1018   52.9342 H   0  0  0  0  0  0  0  0  0  0  0  0
   10.7285   47.8188   54.1177 H   0  0  0  0  0  0  0  0  0  0  0  0
    9.3713   47.3435   51.4393 H   0  0  0  0  0  0  0  0  0  0  0  0
   11.1239   47.1044   51.8289 H   0  0  0  0  0  0  0  0  0  0  0  0
    9.2822   45.1215   51.9267 H   0  0  0  0  0  0  0  0  0  0  0  0
   10.7702   45.2146   52.9846 H   0  0  0  0  0  0  0  0  0  0  0  0
    8.3961   44.6781   54.0151 H   0  0  0  0  0  0  0  0  0  0  0  0
    9.5914   45.7356   54.8599 H   0  0  0  0  0  0  0  0  0  0  0  0
    5.1898   44.5867   53.4778 H   0  0  0  0  0  0  0  0  0  0  0  0
    5.5760   45.3003   55.1124 H   0  0  0  0  0  0  0  0  0  0  0  0
    3.2222   44.3652   54.8009 H   0  0  0  0  0  0  0  0  0  0  0  0
    3.3783   46.0586   55.4262 H   0  0  0  0  0  0  0  0  0  0  0  0
   -0.0292   44.4505   54.3084 H   0  0  0  0  0  0  0  0  0  0  0  0
   -1.6281   42.6180   53.1944 H   0  0  0  0  0  0  0  0  0  0  0  0
   -0.4805   41.9277   50.9412 H   0  0  0  0  0  0  0  0  0  0  0  0
  1  2  2  0
  2  3  1  0
  3  4  1  0
  4  5  1  0
  5  6  1  0
  6  7  1  0
  7  8  1  0
  8  9  1  0
  9 10  1  0
 10 11  1  0
 11 12  1  0
 12 13  1  0
 13 14  1  0
  7 15  1  0
 15 16  1  0
  3 17  2  0
 17 18  1  0
 18 19  2  0
 19 20  1  0
 20 21  1  0
 21 22  2  0
 22  1  1  0
 16  4  1  0
 21 17  1  0
 14  9  1  0
  1 23  1  0
  5 24  1  0
  5 25  1  0
  6 26  1  0
  6 27  1  0
  7 28  1  0
  8 29  1  0
  8 30  1  0
  9 31  1  0
 10 32  1  0
 10 33  1  0
 11 34  1  0
 11 35  1  0
 12 36  1  0
 12 37  1  0
 13 38  1  0
 13 39  1  0
 14 40  1  0
 14 41  1  0
 15 42  1  0
 15 43  1  0
 16 44  1  0
 16 45  1  0
 18 46  1  0
 19 47  1  0
 20 48  1  0
M  CHG  1   9   1
M  END
>  <meeko>  (91) 
{"is_sidechain": false}

>  <CID>  (91) 
Z1039088436

>  <pose_index>  (91) 
3

>  <docking_score>  (91) 
-8.38

>  <rmsd_to_best_selected>  (91) 
1.729543196098029

>  <MWT>  (91) 
300.4299999999995

>  <TPSA>  (91) 
49.25

>  <logP>  (91) 
1.2430999999999994

>  <HBD>  (91) 
2

>  <HBA>  (91) 
3

>  <SMILES>  (91) 
[H]c1nc(N2C([H])([H])C([H])([H])C([H])(C([H])([H])[N+]3([H])C([H])([H])C([H])([H])C([H])([H])C([H])([H])C3([H])[H])C([H])([H])C2([H])[H])c2c([H])c([H])n([H])c2n1

$$$$
Z1039088436_pose4
     RDKit          3D

 48 51  0  0  0  0  0  0  0  0999 V2000
    3.0270   43.8114   50.3483 C   0  0  0  0  0  0  0  0  0  0  0  0
    3.4398   44.8152   51.1531 N   0  0  0  0  0  0  0  0  0  0  0  0
    2.6327   45.2102   52.1795 C   0  0  0  0  0  0  0  0  0  0  0  0
    3.0447   46.2229   53.0494 N   0  0  0  0  0  0  0  0  0  0  0  0
    3.9909   47.1779   52.4764 C   0  0  0  0  0  0  0  0  0  0  0  0
    5.3856   46.5528   52.4429 C   0  0  0  0  0  0  0  0  0  0  0  0
    5.8231   46.0412   53.8312 C   0  0  0  0  0  0  0  0  0  0  0  0
    7.1583   45.2810   53.7487 C   0  0  0  0  0  0  0  0  0  0  0  0
    8.3181   46.0981   54.3096 N   0  0  0  0  0  4  0  0  0  0  0  0
    8.0170   47.5746   54.4865 C   0  0  0  0  0  0  0  0  0  0  0  0
    8.6365   48.4273   53.3825 C   0  0  0  0  0  0  0  0  0  0  0  0
    8.7388   47.6913   52.0550 C   0  0  0  0  0  0  0  0  0  0  0  0
    9.5808   46.4242   52.1822 C   0  0  0  0  0  0  0  0  0  0  0  0
    9.6255   45.8593   53.5982 C   0  0  0  0  0  0  0  0  0  0  0  0
    4.7345   45.2242   54.5540 C   0  0  0  0  0  0  0  0  0  0  0  0
    3.3379   45.8342   54.4278 C   0  0  0  0  0  0  0  0  0  0  0  0
    1.3877   44.5575   52.3102 C   0  0  0  0  0  0  0  0  0  0  0  0
    0.2828   44.6091   53.2087 C   0  0  0  0  0  0  0  0  0  0  0  0
   -0.6495   43.6838   52.7899 C   0  0  0  0  0  0  0  0  0  0  0  0
   -0.1460   43.0581   51.6795 N   0  0  0  0  0  0  0  0  0  0  0  0
    1.0882   43.5717   51.3823 C   0  0  0  0  0  0  0  0  0  0  0  0
    1.8601   43.1570   50.3684 N   0  0  0  0  0  0  0  0  0  0  0  0
    3.7427   43.4907   49.5769 H   0  0  0  0  0  0  0  0  0  0  0  0
    3.6791   47.4346   51.4532 H   0  0  0  0  0  0  0  0  0  0  0  0
    4.0113   48.0893   53.0920 H   0  0  0  0  0  0  0  0  0  0  0  0
    5.3792   45.7077   51.7388 H   0  0  0  0  0  0  0  0  0  0  0  0
    6.0983   47.3288   52.1267 H   0  0  0  0  0  0  0  0  0  0  0  0
    5.9804   46.9334   54.4551 H   0  0  0  0  0  0  0  0  0  0  0  0
    7.0712   44.3473   54.3237 H   0  0  0  0  0  0  0  0  0  0  0  0
    7.3681   45.0778   52.6882 H   0  0  0  0  0  0  0  0  0  0  0  0
    8.4765   45.7559   55.2693 H   0  0  0  0  0  0  0  0  0  0  0  0
    6.9264   47.7175   54.4742 H   0  0  0  0  0  0  0  0  0  0  0  0
    8.4527   47.8950   55.4444 H   0  0  0  0  0  0  0  0  0  0  0  0
    8.0148   49.3235   53.2403 H   0  0  0  0  0  0  0  0  0  0  0  0
    9.6585   48.6847   53.6976 H   0  0  0  0  0  0  0  0  0  0  0  0
    7.7278   47.4166   51.7195 H   0  0  0  0  0  0  0  0  0  0  0  0
    9.2249   48.3575   51.3271 H   0  0  0  0  0  0  0  0  0  0  0  0
    9.1586   45.6579   51.5155 H   0  0  0  0  0  0  0  0  0  0  0  0
   10.6120   46.6939   51.9103 H   0  0  0  0  0  0  0  0  0  0  0  0
    9.8174   44.7773   53.5493 H   0  0  0  0  0  0  0  0  0  0  0  0
   10.4281   46.3649   54.1551 H   0  0  0  0  0  0  0  0  0  0  0  0
    4.7138   44.2121   54.1235 H   0  0  0  0  0  0  0  0  0  0  0  0
    4.9906   45.2140   55.6237 H   0  0  0  0  0  0  0  0  0  0  0  0
    2.5936   45.0938   54.7563 H   0  0  0  0  0  0  0  0  0  0  0  0
    3.2975   46.7360   55.0564 H   0  0  0  0  0  0  0  0  0  0  0  0
    0.1901   45.2708   54.0826 H   0  0  0  0  0  0  0  0  0  0  0  0
   -1.6227   43.4837   53.2622 H   0  0  0  0  0  0  0  0  0  0  0  0
   -0.5875   42.3124   51.1585 H   0  0  0  0  0  0  0  0  0  0  0  0
  1  2  2  0
  2  3  1  0
  3  4  1  0
  4  5  1  0
  5  6  1  0
  6  7  1  0
  7  8  1  0
  8  9  1  0
  9 10  1  0
 10 11  1  0
 11 12  1  0
 12 13  1  0
 13 14  1  0
  7 15  1  0
 15 16  1  0
  3 17  2  0
 17 18  1  0
 18 19  2  0
 19 20  1  0
 20 21  1  0
 21 22  2  0
 22  1  1  0
 16  4  1  0
 21 17  1  0
 14  9  1  0
  1 23  1  0
  5 24  1  0
  5 25  1  0
  6 26  1  0
  6 27  1  0
  7 28  1  0
  8 29  1  0
  8 30  1  0
  9 31  1  0
 10 32  1  0
 10 33  1  0
 11 34  1  0
 11 35  1  0
 12 36  1  0
 12 37  1  0
 13 38  1  0
 13 39  1  0
 14 40  1  0
 14 41  1  0
 15 42  1  0
 15 43  1  0
 16 44  1  0
 16 45  1  0
 18 46  1  0
 19 47  1  0
 20 48  1  0
M  CHG  1   9   1
M  END
>  <meeko>  (92) 
{"is_sidechain": false}

>  <CID>  (92) 
Z1039088436

>  <pose_index>  (92) 
4

>  <docking_score>  (92) 
-8.219

>  <rmsd_to_best_selected>  (92) 
1.8628289595878813

>  <MWT>  (92) 
300.4299999999995

>  <TPSA>  (92) 
49.25

>  <logP>  (92) 
1.2430999999999994

>  <HBD>  (92) 
2

>  <HBA>  (92) 
3

>  <SMILES>  (92) 
[H]c1nc(N2C([H])([H])C([H])([H])C([H])(C([H])([H])[N+]3([H])C([H])([H])C([H])([H])C([H])([H])C([H])([H])C3([H])[H])C([H])([H])C2([H])[H])c2c([H])c([H])n([H])c2n1

$$$$
Z1039088436_pose5
     RDKit          3D

 48 51  0  0  0  0  0  0  0  0999 V2000
    3.1114   43.4846   50.6806 C   0  0  0  0  0  0  0  0  0  0  0  0
    3.5222   44.4692   51.5085 N   0  0  0  0  0  0  0  0  0  0  0  0
    2.6204   45.0303   52.3640 C   0  0  0  0  0  0  0  0  0  0  0  0
    3.0223   46.0276   53.2576 N   0  0  0  0  0  0  0  0  0  0  0  0
    3.8621   47.0712   52.6749 C   0  0  0  0  0  0  0  0  0  0  0  0
    5.2896   46.5473   52.5208 C   0  0  0  0  0  0  0  0  0  0  0  0
    5.8519   46.0024   53.8503 C   0  0  0  0  0  0  0  0  0  0  0  0
    7.2259   45.3420   53.6451 C   0  0  0  0  0  0  0  0  0  0  0  0
    8.3580   46.1752   54.2382 N   0  0  0  0  0  4  0  0  0  0  0  0
    8.0331   47.6499   54.3967 C   0  0  0  0  0  0  0  0  0  0  0  0
    8.6773   48.5028   53.3076 C   0  0  0  0  0  0  0  0  0  0  0  0
    8.8310   47.7618   51.9894 C   0  0  0  0  0  0  0  0  0  0  0  0
    9.6832   46.5051   52.1507 C   0  0  0  0  0  0  0  0  0  0  0  0
    9.6891   45.9483   53.5709 C   0  0  0  0  0  0  0  0  0  0  0  0
    4.8698   45.0785   54.5983 C   0  0  0  0  0  0  0  0  0  0  0  0
    3.4312   45.5959   54.5925 C   0  0  0  0  0  0  0  0  0  0  0  0
    1.2897   44.5615   52.2978 C   0  0  0  0  0  0  0  0  0  0  0  0
    0.0683   44.8158   52.9890 C   0  0  0  0  0  0  0  0  0  0  0  0
   -0.9036   44.0026   52.4456 C   0  0  0  0  0  0  0  0  0  0  0  0
   -0.3147   43.2488   51.4627 N   0  0  0  0  0  0  0  0  0  0  0  0
    1.0122   43.5719   51.3676 C   0  0  0  0  0  0  0  0  0  0  0  0
    1.8746   42.9973   50.5191 N   0  0  0  0  0  0  0  0  0  0  0  0
    3.8932   43.0236   50.0590 H   0  0  0  0  0  0  0  0  0  0  0  0
    3.4660   47.3525   51.6880 H   0  0  0  0  0  0  0  0  0  0  0  0
    3.8633   47.9522   53.3335 H   0  0  0  0  0  0  0  0  0  0  0  0
    5.2925   45.7381   51.7757 H   0  0  0  0  0  0  0  0  0  0  0  0
    5.9263   47.3852   52.2005 H   0  0  0  0  0  0  0  0  0  0  0  0
    5.9914   46.8732   54.5078 H   0  0  0  0  0  0  0  0  0  0  0  0
    7.2207   44.3546   54.1300 H   0  0  0  0  0  0  0  0  0  0  0  0
    7.4012   45.2543   52.5627 H   0  0  0  0  0  0  0  0  0  0  0  0
    8.4884   45.8400   55.2046 H   0  0  0  0  0  0  0  0  0  0  0  0
    6.9418   47.7792   54.3487 H   0  0  0  0  0  0  0  0  0  0  0  0
    8.4334   47.9815   55.3661 H   0  0  0  0  0  0  0  0  0  0  0  0
    8.0499   49.3907   53.1400 H   0  0  0  0  0  0  0  0  0  0  0  0
    9.6858   48.7735   53.6536 H   0  0  0  0  0  0  0  0  0  0  0  0
    7.8346   47.4735   51.6231 H   0  0  0  0  0  0  0  0  0  0  0  0
    9.3327   48.4299   51.2740 H   0  0  0  0  0  0  0  0  0  0  0  0
    9.2915   45.7304   51.4751 H   0  0  0  0  0  0  0  0  0  0  0  0
   10.7194   46.7855   51.9102 H   0  0  0  0  0  0  0  0  0  0  0  0
    9.8950   44.8683   53.5343 H   0  0  0  0  0  0  0  0  0  0  0  0
   10.4676   46.4662   54.1502 H   0  0  0  0  0  0  0  0  0  0  0  0
    4.8871   44.0888   54.1186 H   0  0  0  0  0  0  0  0  0  0  0  0
    5.1969   45.0356   55.6476 H   0  0  0  0  0  0  0  0  0  0  0  0
    2.7607   44.7913   54.9288 H   0  0  0  0  0  0  0  0  0  0  0  0
    3.3733   46.4620   55.2680 H   0  0  0  0  0  0  0  0  0  0  0  0
   -0.0733   45.5337   53.8104 H   0  0  0  0  0  0  0  0  0  0  0  0
   -1.9611   43.9651   52.7463 H   0  0  0  0  0  0  0  0  0  0  0  0
   -0.7655   42.5410   50.8998 H   0  0  0  0  0  0  0  0  0  0  0  0
  1  2  2  0
  2  3  1  0
  3  4  1  0
  4  5  1  0
  5  6  1  0
  6  7  1  0
  7  8  1  0
  8  9  1  0
  9 10  1  0
 10 11  1  0
 11 12  1  0
 12 13  1  0
 13 14  1  0
  7 15  1  0
 15 16  1  0
  3 17  2  0
 17 18  1  0
 18 19  2  0
 19 20  1  0
 20 21  1  0
 21 22  2  0
 22  1  1  0
 16  4  1  0
 21 17  1  0
 14  9  1  0
  1 23  1  0
  5 24  1  0
  5 25  1  0
  6 26  1  0
  6 27  1  0
  7 28  1  0
  8 29  1  0
  8 30  1  0
  9 31  1  0
 10 32  1  0
 10 33  1  0
 11 34  1  0
 11 35  1  0
 12 36  1  0
 12 37  1  0
 13 38  1  0
 13 39  1  0
 14 40  1  0
 14 41  1  0
 15 42  1  0
 15 43  1  0
 16 44  1  0
 16 45  1  0
 18 46  1  0
 19 47  1  0
 20 48  1  0
M  CHG  1   9   1
M  END
>  <meeko>  (93) 
{"is_sidechain": false}

>  <CID>  (93) 
Z1039088436

>  <pose_index>  (93) 
5

>  <docking_score>  (93) 
-8.118

>  <rmsd_to_best_selected>  (93) 
1.7375135711950578

>  <MWT>  (93) 
300.4299999999995

>  <TPSA>  (93) 
49.25

>  <logP>  (93) 
1.2430999999999994

>  <HBD>  (93) 
2

>  <HBA>  (93) 
3

>  <SMILES>  (93) 
[H]c1nc(N2C([H])([H])C([H])([H])C([H])(C([H])([H])[N+]3([H])C([H])([H])C([H])([H])C([H])([H])C([H])([H])C3([H])[H])C([H])([H])C2([H])[H])c2c([H])c([H])n([H])c2n1

$$$$
Z1039088436_pose6
     RDKit          3D

 48 51  0  0  0  0  0  0  0  0999 V2000
    3.7990   43.3579   51.2657 C   0  0  0  0  0  0  0  0  0  0  0  0
    3.8511   44.4584   52.0471 N   0  0  0  0  0  0  0  0  0  0  0  0
    2.7140   44.8733   52.6762 C   0  0  0  0  0  0  0  0  0  0  0  0
    2.7430   45.9893   53.5180 N   0  0  0  0  0  0  0  0  0  0  0  0
    2.8379   47.2749   52.8308 C   0  0  0  0  0  0  0  0  0  0  0  0
    4.2797   47.5026   52.3781 C   0  0  0  0  0  0  0  0  0  0  0  0
    5.2797   47.3751   53.5468 C   0  0  0  0  0  0  0  0  0  0  0  0
    6.7328   47.4560   53.0467 C   0  0  0  0  0  0  0  0  0  0  0  0
    7.6257   46.4129   53.7121 N   0  0  0  0  0  4  0  0  0  0  0  0
    8.6569   46.9888   54.6651 C   0  0  0  0  0  0  0  0  0  0  0  0
   10.0536   47.0294   54.0492 C   0  0  0  0  0  0  0  0  0  0  0  0
   10.0288   47.2224   52.5412 C   0  0  0  0  0  0  0  0  0  0  0  0
    9.2547   46.1032   51.8478 C   0  0  0  0  0  0  0  0  0  0  0  0
    8.2254   45.4254   52.7449 C   0  0  0  0  0  0  0  0  0  0  0  0
    5.0372   46.1352   54.4285 C   0  0  0  0  0  0  0  0  0  0  0  0
    3.5584   45.8868   54.7274 C   0  0  0  0  0  0  0  0  0  0  0  0
    1.5357   44.1335   52.4354 C   0  0  0  0  0  0  0  0  0  0  0  0
    0.1818   44.1723   52.8809 C   0  0  0  0  0  0  0  0  0  0  0  0
   -0.4957   43.1403   52.2680 C   0  0  0  0  0  0  0  0  0  0  0  0
    0.3988   42.4641   51.4800 N   0  0  0  0  0  0  0  0  0  0  0  0
    1.6318   43.0497   51.5775 C   0  0  0  0  0  0  0  0  0  0  0  0
    2.7320   42.6139   50.9500 N   0  0  0  0  0  0  0  0  0  0  0  0
    4.7563   43.0311   50.8333 H   0  0  0  0  0  0  0  0  0  0  0  0
    2.1738   47.2723   51.9539 H   0  0  0  0  0  0  0  0  0  0  0  0
    2.5359   48.0811   53.5156 H   0  0  0  0  0  0  0  0  0  0  0  0
    4.5330   46.7562   51.6109 H   0  0  0  0  0  0  0  0  0  0  0  0
    4.3528   48.5248   51.9784 H   0  0  0  0  0  0  0  0  0  0  0  0
    5.1005   48.2386   54.2042 H   0  0  0  0  0  0  0  0  0  0  0  0
    6.7437   47.2910   51.9592 H   0  0  0  0  0  0  0  0  0  0  0  0
    7.1249   48.4514   53.3024 H   0  0  0  0  0  0  0  0  0  0  0  0
    7.0112   45.8477   54.3169 H   0  0  0  0  0  0  0  0  0  0  0  0
    8.3582   48.0129   54.9333 H   0  0  0  0  0  0  0  0  0  0  0  0
    8.6978   46.3383   55.5512 H   0  0  0  0  0  0  0  0  0  0  0  0
   10.6123   47.8625   54.5007 H   0  0  0  0  0  0  0  0  0  0  0  0
   10.5319   46.0596   54.2506 H   0  0  0  0  0  0  0  0  0  0  0  0
    9.5486   48.1850   52.3115 H   0  0  0  0  0  0  0  0  0  0  0  0
   11.0654   47.2051   52.1734 H   0  0  0  0  0  0  0  0  0  0  0  0
    8.7317   46.5290   50.9788 H   0  0  0  0  0  0  0  0  0  0  0  0
    9.9874   45.3348   51.5604 H   0  0  0  0  0  0  0  0  0  0  0  0
    7.4256   45.0016   52.1199 H   0  0  0  0  0  0  0  0  0  0  0  0
    8.7258   44.6305   53.3175 H   0  0  0  0  0  0  0  0  0  0  0  0
    5.4417   45.2534   53.9102 H   0  0  0  0  0  0  0  0  0  0  0  0
    5.5386   46.3161   55.3907 H   0  0  0  0  0  0  0  0  0  0  0  0
    3.4439   44.8783   55.1514 H   0  0  0  0  0  0  0  0  0  0  0  0
    3.2168   46.6521   55.4400 H   0  0  0  0  0  0  0  0  0  0  0  0
   -0.2462   44.8976   53.5885 H   0  0  0  0  0  0  0  0  0  0  0  0
   -1.5628   42.9022   52.3895 H   0  0  0  0  0  0  0  0  0  0  0  0
    0.2067   41.6413   50.9243 H   0  0  0  0  0  0  0  0  0  0  0  0
  1  2  2  0
  2  3  1  0
  3  4  1  0
  4  5  1  0
  5  6  1  0
  6  7  1  0
  7  8  1  0
  8  9  1  0
  9 10  1  0
 10 11  1  0
 11 12  1  0
 12 13  1  0
 13 14  1  0
  7 15  1  0
 15 16  1  0
  3 17  2  0
 17 18  1  0
 18 19  2  0
 19 20  1  0
 20 21  1  0
 21 22  2  0
 22  1  1  0
 16  4  1  0
 21 17  1  0
 14  9  1  0
  1 23  1  0
  5 24  1  0
  5 25  1  0
  6 26  1  0
  6 27  1  0
  7 28  1  0
  8 29  1  0
  8 30  1  0
  9 31  1  0
 10 32  1  0
 10 33  1  0
 11 34  1  0
 11 35  1  0
 12 36  1  0
 12 37  1  0
 13 38  1  0
 13 39  1  0
 14 40  1  0
 14 41  1  0
 15 42  1  0
 15 43  1  0
 16 44  1  0
 16 45  1  0
 18 46  1  0
 19 47  1  0
 20 48  1  0
M  CHG  1   9   1
M  END
>  <meeko>  (94) 
{"is_sidechain": false}

>  <CID>  (94) 
Z1039088436

>  <pose_index>  (94) 
6

>  <docking_score>  (94) 
-7.961

>  <rmsd_to_best_selected>  (94) 
1.4828947747845236

>  <MWT>  (94) 
300.4299999999995

>  <TPSA>  (94) 
49.25

>  <logP>  (94) 
1.2430999999999994

>  <HBD>  (94) 
2

>  <HBA>  (94) 
3

>  <SMILES>  (94) 
[H]c1nc(N2C([H])([H])C([H])([H])C([H])(C([H])([H])[N+]3([H])C([H])([H])C([H])([H])C([H])([H])C([H])([H])C3([H])[H])C([H])([H])C2([H])[H])c2c([H])c([H])n([H])c2n1

$$$$
Z1039088436_pose7
     RDKit          3D

 48 51  0  0  0  0  0  0  0  0999 V2000
    4.0202   43.9633   50.8393 C   0  0  0  0  0  0  0  0  0  0  0  0
    3.9279   45.0374   51.6534 N   0  0  0  0  0  0  0  0  0  0  0  0
    2.8433   45.1518   52.4724 C   0  0  0  0  0  0  0  0  0  0  0  0
    2.7356   46.2338   53.3513 N   0  0  0  0  0  0  0  0  0  0  0  0
    3.2121   47.5073   52.8183 C   0  0  0  0  0  0  0  0  0  0  0  0
    4.7402   47.5383   52.8690 C   0  0  0  0  0  0  0  0  0  0  0  0
    5.2771   47.2472   54.2859 C   0  0  0  0  0  0  0  0  0  0  0  0
    6.8114   47.1312   54.2868 C   0  0  0  0  0  0  0  0  0  0  0  0
    7.3924   47.1972   52.8774 N   0  0  0  0  0  4  0  0  0  0  0  0
    7.4919   45.8539   52.1776 C   0  0  0  0  0  0  0  0  0  0  0  0
    8.9169   45.3078   52.1749 C   0  0  0  0  0  0  0  0  0  0  0  0
    9.7166   45.7379   53.3949 C   0  0  0  0  0  0  0  0  0  0  0  0
    9.8088   47.2594   53.4949 C   0  0  0  0  0  0  0  0  0  0  0  0
    8.6708   47.9881   52.7867 C   0  0  0  0  0  0  0  0  0  0  0  0
    4.6039   46.0338   54.9582 C   0  0  0  0  0  0  0  0  0  0  0  0
    3.0902   45.9909   54.7480 C   0  0  0  0  0  0  0  0  0  0  0  0
    1.8592   44.1433   52.3856 C   0  0  0  0  0  0  0  0  0  0  0  0
    0.6290   43.8397   53.0387 C   0  0  0  0  0  0  0  0  0  0  0  0
    0.1336   42.6755   52.4916 C   0  0  0  0  0  0  0  0  0  0  0  0
    1.0247   42.2487   51.5426 N   0  0  0  0  0  0  0  0  0  0  0  0
    2.0769   43.1231   51.4725 C   0  0  0  0  0  0  0  0  0  0  0  0
    3.1311   42.9794   50.6592 N   0  0  0  0  0  0  0  0  0  0  0  0
    4.9450   43.8876   50.2485 H   0  0  0  0  0  0  0  0  0  0  0  0
    2.8771   47.6177   51.7764 H   0  0  0  0  0  0  0  0  0  0  0  0
    2.8074   48.3331   53.4218 H   0  0  0  0  0  0  0  0  0  0  0  0
    5.1340   46.7793   52.1771 H   0  0  0  0  0  0  0  0  0  0  0  0
    5.0695   48.5477   52.5814 H   0  0  0  0  0  0  0  0  0  0  0  0
    5.0037   48.1139   54.9057 H   0  0  0  0  0  0  0  0  0  0  0  0
    7.2292   47.9566   54.8818 H   0  0  0  0  0  0  0  0  0  0  0  0
    7.0771   46.1546   54.7175 H   0  0  0  0  0  0  0  0  0  0  0  0
    6.7147   47.7286   52.3098 H   0  0  0  0  0  0  0  0  0  0  0  0
    6.8387   45.1360   52.6952 H   0  0  0  0  0  0  0  0  0  0  0  0
    7.1830   45.9951   51.1314 H   0  0  0  0  0  0  0  0  0  0  0  0
    8.8719   44.2090   52.1539 H   0  0  0  0  0  0  0  0  0  0  0  0
    9.4246   45.7131   51.2872 H   0  0  0  0  0  0  0  0  0  0  0  0
    9.2257   45.3492   54.2994 H   0  0  0  0  0  0  0  0  0  0  0  0
   10.7358   45.3355   53.2994 H   0  0  0  0  0  0  0  0  0  0  0  0
    9.7926   47.5397   54.5585 H   0  0  0  0  0  0  0  0  0  0  0  0
   10.7430   47.5594   52.9975 H   0  0  0  0  0  0  0  0  0  0  0  0
    8.5219   48.9702   53.2592 H   0  0  0  0  0  0  0  0  0  0  0  0
    8.9359   48.1103   51.7261 H   0  0  0  0  0  0  0  0  0  0  0  0
    5.0410   45.1153   54.5396 H   0  0  0  0  0  0  0  0  0  0  0  0
    4.7810   46.1203   56.0404 H   0  0  0  0  0  0  0  0  0  0  0  0
    2.7162   44.9998   55.0444 H   0  0  0  0  0  0  0  0  0  0  0  0
    2.6342   46.7816   55.3620 H   0  0  0  0  0  0  0  0  0  0  0  0
    0.1580   44.4304   53.8383 H   0  0  0  0  0  0  0  0  0  0  0  0
   -0.8082   42.1784   52.7674 H   0  0  0  0  0  0  0  0  0  0  0  0
    0.9514   41.4084   50.9853 H   0  0  0  0  0  0  0  0  0  0  0  0
  1  2  2  0
  2  3  1  0
  3  4  1  0
  4  5  1  0
  5  6  1  0
  6  7  1  0
  7  8  1  0
  8  9  1  0
  9 10  1  0
 10 11  1  0
 11 12  1  0
 12 13  1  0
 13 14  1  0
  7 15  1  0
 15 16  1  0
  3 17  2  0
 17 18  1  0
 18 19  2  0
 19 20  1  0
 20 21  1  0
 21 22  2  0
 22  1  1  0
 16  4  1  0
 21 17  1  0
 14  9  1  0
  1 23  1  0
  5 24  1  0
  5 25  1  0
  6 26  1  0
  6 27  1  0
  7 28  1  0
  8 29  1  0
  8 30  1  0
  9 31  1  0
 10 32  1  0
 10 33  1  0
 11 34  1  0
 11 35  1  0
 12 36  1  0
 12 37  1  0
 13 38  1  0
 13 39  1  0
 14 40  1  0
 14 41  1  0
 15 42  1  0
 15 43  1  0
 16 44  1  0
 16 45  1  0
 18 46  1  0
 19 47  1  0
 20 48  1  0
M  CHG  1   9   1
M  END
>  <meeko>  (95) 
{"is_sidechain": false}

>  <CID>  (95) 
Z1039088436

>  <pose_index>  (95) 
7

>  <docking_score>  (95) 
-7.572

>  <rmsd_to_best_selected>  (95) 
1.390806240617072

>  <MWT>  (95) 
300.4299999999995

>  <TPSA>  (95) 
49.25

>  <logP>  (95) 
1.2430999999999994

>  <HBD>  (95) 
2

>  <HBA>  (95) 
3

>  <SMILES>  (95) 
[H]c1nc(N2C([H])([H])C([H])([H])C([H])(C([H])([H])[N+]3([H])C([H])([H])C([H])([H])C([H])([H])C([H])([H])C3([H])[H])C([H])([H])C2([H])[H])c2c([H])c([H])n([H])c2n1

$$$$
Z1039088436_pose9
     RDKit          3D

 48 51  0  0  0  0  0  0  0  0999 V2000
    4.1219   43.4955   51.2968 C   0  0  0  0  0  0  0  0  0  0  0  0
    3.9550   44.7136   51.8569 N   0  0  0  0  0  0  0  0  0  0  0  0
    2.8752   44.9257   52.6628 C   0  0  0  0  0  0  0  0  0  0  0  0
    2.6929   46.1644   53.2840 N   0  0  0  0  0  0  0  0  0  0  0  0
    3.0277   47.3216   52.4563 C   0  0  0  0  0  0  0  0  0  0  0  0
    4.5454   47.4948   52.4170 C   0  0  0  0  0  0  0  0  0  0  0  0
    5.1551   47.5780   53.8322 C   0  0  0  0  0  0  0  0  0  0  0  0
    6.6919   47.5981   53.7760 C   0  0  0  0  0  0  0  0  0  0  0  0
    7.2331   46.8297   52.5736 N   0  0  0  0  0  4  0  0  0  0  0  0
    7.7210   45.4291   52.8945 C   0  0  0  0  0  0  0  0  0  0  0  0
    9.2429   45.3501   52.9672 C   0  0  0  0  0  0  0  0  0  0  0  0
    9.8791   46.6464   53.4454 C   0  0  0  0  0  0  0  0  0  0  0  0
    9.5251   47.8139   52.5273 C   0  0  0  0  0  0  0  0  0  0  0  0
    8.2265   47.6100   51.7536 C   0  0  0  0  0  0  0  0  0  0  0  0
    4.6238   46.4950   54.7924 C   0  0  0  0  0  0  0  0  0  0  0  0
    3.1151   46.2747   54.6784 C   0  0  0  0  0  0  0  0  0  0  0  0
    1.9733   43.8529   52.8282 C   0  0  0  0  0  0  0  0  0  0  0  0
    0.7787   43.6113   53.5694 C   0  0  0  0  0  0  0  0  0  0  0  0
    0.3701   42.3206   53.3069 C   0  0  0  0  0  0  0  0  0  0  0  0
    1.2815   41.7614   52.4485 N   0  0  0  0  0  0  0  0  0  0  0  0
    2.2597   42.6742   52.1570 C   0  0  0  0  0  0  0  0  0  0  0  0
    3.3123   42.4323   51.3647 N   0  0  0  0  0  0  0  0  0  0  0  0
    5.0419   43.3603   50.7091 H   0  0  0  0  0  0  0  0  0  0  0  0
    2.6497   47.1642   51.4353 H   0  0  0  0  0  0  0  0  0  0  0  0
    2.5655   48.2243   52.8822 H   0  0  0  0  0  0  0  0  0  0  0  0
    4.9872   46.6364   51.8900 H   0  0  0  0  0  0  0  0  0  0  0  0
    4.7660   48.4383   51.8963 H   0  0  0  0  0  0  0  0  0  0  0  0
    4.8209   48.5354   54.2584 H   0  0  0  0  0  0  0  0  0  0  0  0
    7.0307   48.6426   53.7110 H   0  0  0  0  0  0  0  0  0  0  0  0
    7.0703   47.1113   54.6869 H   0  0  0  0  0  0  0  0  0  0  0  0
    6.4310   46.6794   51.9417 H   0  0  0  0  0  0  0  0  0  0  0  0
    7.3039   45.1227   53.8652 H   0  0  0  0  0  0  0  0  0  0  0  0
    7.3870   44.7623   52.0860 H   0  0  0  0  0  0  0  0  0  0  0  0
    9.5201   44.5450   53.6637 H   0  0  0  0  0  0  0  0  0  0  0  0
    9.6131   45.1555   51.9498 H   0  0  0  0  0  0  0  0  0  0  0  0
    9.5192   46.8682   54.4609 H   0  0  0  0  0  0  0  0  0  0  0  0
   10.9716   46.5190   53.4369 H   0  0  0  0  0  0  0  0  0  0  0  0
    9.4254   48.7212   53.1411 H   0  0  0  0  0  0  0  0  0  0  0  0
   10.3330   47.8974   51.7855 H   0  0  0  0  0  0  0  0  0  0  0  0
    7.7970   48.5915   51.5047 H   0  0  0  0  0  0  0  0  0  0  0  0
    8.4475   47.0452   50.8359 H   0  0  0  0  0  0  0  0  0  0  0  0
    5.1334   45.5468   54.5658 H   0  0  0  0  0  0  0  0  0  0  0  0
    4.8268   46.8394   55.8172 H   0  0  0  0  0  0  0  0  0  0  0  0
    2.8486   45.3475   55.2068 H   0  0  0  0  0  0  0  0  0  0  0  0
    2.6055   47.1410   55.1254 H   0  0  0  0  0  0  0  0  0  0  0  0
    0.2727   44.3279   54.2330 H   0  0  0  0  0  0  0  0  0  0  0  0
   -0.5257   41.8282   53.7131 H   0  0  0  0  0  0  0  0  0  0  0  0
    1.2680   40.8154   52.0935 H   0  0  0  0  0  0  0  0  0  0  0  0
  1  2  2  0
  2  3  1  0
  3  4  1  0
  4  5  1  0
  5  6  1  0
  6  7  1  0
  7  8  1  0
  8  9  1  0
  9 10  1  0
 10 11  1  0
 11 12  1  0
 12 13  1  0
 13 14  1  0
  7 15  1  0
 15 16  1  0
  3 17  2  0
 17 18  1  0
 18 19  2  0
 19 20  1  0
 20 21  1  0
 21 22  2  0
 22  1  1  0
 16  4  1  0
 21 17  1  0
 14  9  1  0
  1 23  1  0
  5 24  1  0
  5 25  1  0
  6 26  1  0
  6 27  1  0
  7 28  1  0
  8 29  1  0
  8 30  1  0
  9 31  1  0
 10 32  1  0
 10 33  1  0
 11 34  1  0
 11 35  1  0
 12 36  1  0
 12 37  1  0
 13 38  1  0
 13 39  1  0
 14 40  1  0
 14 41  1  0
 15 42  1  0
 15 43  1  0
 16 44  1  0
 16 45  1  0
 18 46  1  0
 19 47  1  0
 20 48  1  0
M  CHG  1   9   1
M  END
>  <meeko>  (96) 
{"is_sidechain": false}

>  <CID>  (96) 
Z1039088436

>  <pose_index>  (96) 
9

>  <docking_score>  (96) 
-7.456

>  <rmsd_to_best_selected>  (96) 
1.6497695359525284

>  <MWT>  (96) 
300.4299999999995

>  <TPSA>  (96) 
49.25

>  <logP>  (96) 
1.2430999999999994

>  <HBD>  (96) 
2

>  <HBA>  (96) 
3

>  <SMILES>  (96) 
[H]c1nc(N2C([H])([H])C([H])([H])C([H])(C([H])([H])[N+]3([H])C([H])([H])C([H])([H])C([H])([H])C([H])([H])C3([H])[H])C([H])([H])C2([H])[H])c2c([H])c([H])n([H])c2n1

$$$$
Z1041114218_pose1
     RDKit          3D

 50 54  0  0  0  0  0  0  0  0999 V2000
    5.7580   41.5450   48.8070 C   0  0  0  0  0  0  0  0  0  0  0  0
    4.5880   40.7930   48.7630 C   0  0  0  0  0  0  0  0  0  0  0  0
    3.6070   40.9690   49.7440 C   0  0  0  0  0  0  0  0  0  0  0  0
    3.7680   41.9040   50.7780 C   0  0  0  0  0  0  0  0  0  0  0  0
    2.7580   42.0200   51.7460 N   0  0  0  0  0  0  0  0  0  0  0  0
    2.2760   43.1390   52.4840 C   0  0  0  0  0  0  0  0  0  0  0  0
    3.1360   44.0100   53.0480 N   0  0  0  0  0  0  0  0  0  0  0  0
    2.6470   45.0280   53.7590 C   0  0  0  0  0  0  0  0  0  0  0  0
    3.5260   45.9160   54.3540 N   0  0  0  0  0  0  0  0  0  0  0  0
    4.4350   45.4190   55.4000 C   0  0  0  0  0  0  0  0  0  0  0  0
    5.9070   45.4430   54.9270 C   0  0  0  0  0  0  0  0  0  0  0  0
    6.3360   46.7990   54.4810 N   0  0  0  0  0  0  0  0  0  0  0  0
    7.4920   46.7790   53.6890 C   0  0  0  0  0  0  0  0  0  0  0  0
    8.7220   47.1660   54.2520 C   0  0  0  0  0  0  0  0  0  0  0  0
    9.9070   47.1630   53.5100 C   0  0  0  0  0  0  0  0  0  0  0  0
    9.8900   46.7710   52.1770 C   0  0  0  0  0  0  0  0  0  0  0  0
    8.6890   46.3850   51.5920 C   0  0  0  0  0  0  0  0  0  0  0  0
    7.5050   46.3920   52.3420 C   0  0  0  0  0  0  0  0  0  0  0  0
    5.2260   47.7220   54.1520 C   0  0  0  0  0  0  0  0  0  0  0  0
    4.0500   46.9830   53.4820 C   0  0  0  0  0  0  0  0  0  0  0  0
    1.3390   45.2030   53.9450 N   0  0  0  0  0  0  0  0  0  0  0  0
    0.4900   44.3480   53.3890 C   0  0  0  0  0  0  0  0  0  0  0  0
   -0.8170   44.5650   53.5840 N   0  0  0  0  0  0  0  0  0  0  0  0
   -1.6960   43.7080   53.0160 C   0  0  0  0  0  0  0  0  0  0  0  0
   -1.2920   42.6390   52.2500 C   0  0  0  0  0  0  0  0  0  0  0  0
    0.0120   42.3910   52.0270 N   0  0  0  0  0  0  0  0  0  0  0  0
    0.8970   43.2560   52.6170 C   0  0  0  0  0  0  0  0  0  0  0  0
    4.9600   42.6340   50.8150 C   0  0  0  0  0  0  0  0  0  0  0  0
    5.9460   42.4620   49.8370 C   0  0  0  0  0  0  0  0  0  0  0  0
    6.5289   41.4156   48.0331 H   0  0  0  0  0  0  0  0  0  0  0  0
    4.4348   40.0604   47.9569 H   0  0  0  0  0  0  0  0  0  0  0  0
    2.6904   40.3621   49.7043 H   0  0  0  0  0  0  0  0  0  0  0  0
    2.0420   41.2980   51.7080 H   0  0  0  0  0  0  0  0  0  0  0  0
    4.3355   46.0547   56.2922 H   0  0  0  0  0  0  0  0  0  0  0  0
    4.1623   44.3784   55.6295 H   0  0  0  0  0  0  0  0  0  0  0  0
    6.5513   45.1242   55.7596 H   0  0  0  0  0  0  0  0  0  0  0  0
    5.9953   44.7625   54.0673 H   0  0  0  0  0  0  0  0  0  0  0  0
    8.7522   47.4798   55.3058 H   0  0  0  0  0  0  0  0  0  0  0  0
   10.8521   47.4708   53.9812 H   0  0  0  0  0  0  0  0  0  0  0  0
   10.8196   46.7661   51.5890 H   0  0  0  0  0  0  0  0  0  0  0  0
    8.6681   46.0732   50.5373 H   0  0  0  0  0  0  0  0  0  0  0  0
    6.5636   46.0865   51.8620 H   0  0  0  0  0  0  0  0  0  0  0  0
    4.8686   48.1946   55.0788 H   0  0  0  0  0  0  0  0  0  0  0  0
    5.6044   48.4759   53.4460 H   0  0  0  0  0  0  0  0  0  0  0  0
    3.2455   47.7035   53.2732 H   0  0  0  0  0  0  0  0  0  0  0  0
    4.4116   46.5252   52.5494 H   0  0  0  0  0  0  0  0  0  0  0  0
   -2.7725   43.8717   53.1722 H   0  0  0  0  0  0  0  0  0  0  0  0
   -2.0499   41.9736   51.8110 H   0  0  0  0  0  0  0  0  0  0  0  0
    5.1257   43.3566   51.6276 H   0  0  0  0  0  0  0  0  0  0  0  0
    6.8724   43.0533   49.8824 H   0  0  0  0  0  0  0  0  0  0  0  0
  1  2  2  0
  2  3  1  0
  3  4  2  0
  4  5  1  0
  5  6  1  0
  6  7  2  0
  7  8  1  0
  8  9  1  0
  9 10  1  0
 10 11  1  0
 11 12  1  0
 12 13  1  0
 13 14  2  0
 14 15  1  0
 15 16  2  0
 16 17  1  0
 17 18  2  0
 12 19  1  0
 19 20  1  0
  8 21  2  0
 21 22  1  0
 22 23  2  0
 23 24  1  0
 24 25  2  0
 25 26  1  0
 26 27  2  0
  4 28  1  0
 28 29  2  0
 29  1  1  0
 27  6  1  0
 20  9  1  0
 27 22  1  0
 18 13  1  0
  1 30  1  0
  2 31  1  0
  3 32  1  0
  5 33  1  0
 10 34  1  0
 10 35  1  0
 11 36  1  0
 11 37  1  0
 14 38  1  0
 15 39  1  0
 16 40  1  0
 17 41  1  0
 18 42  1  0
 19 43  1  0
 19 44  1  0
 20 45  1  0
 20 46  1  0
 24 47  1  0
 25 48  1  0
 28 49  1  0
 29 50  1  0
M  END
>  <meeko>  (97) 
{"is_sidechain": false}

>  <CID>  (97) 
Z1041114218

>  <pose_index>  (97) 
1

>  <docking_score>  (97) 
-10.583

>  <rmsd_to_best_selected>  (97) 
0.0

>  <MWT>  (97) 
383.4589999999997

>  <TPSA>  (97) 
70.07000000000001

>  <logP>  (97) 
3.490000000000002

>  <HBD>  (97) 
1

>  <HBA>  (97) 
7

>  <SMILES>  (97) 
[H]c1nc2nc(N3C([H])([H])C([H])([H])N(c4c([H])c([H])c([H])c([H])c4[H])C([H])([H])C3([H])[H])nc(N([H])c3c([H])c([H])c([H])c([H])c3[H])c2nc1[H]

$$$$
Z1041114218_pose2
     RDKit          3D

 50 54  0  0  0  0  0  0  0  0999 V2000
    5.9842   41.4665   49.1979 C   0  0  0  0  0  0  0  0  0  0  0  0
    5.6527   42.7212   49.7021 C   0  0  0  0  0  0  0  0  0  0  0  0
    4.5523   42.8628   50.5525 C   0  0  0  0  0  0  0  0  0  0  0  0
    3.7706   41.7582   50.9252 C   0  0  0  0  0  0  0  0  0  0  0  0
    2.6638   41.9675   51.7641 N   0  0  0  0  0  0  0  0  0  0  0  0
    2.2187   43.1171   52.4783 C   0  0  0  0  0  0  0  0  0  0  0  0
    3.1041   43.9360   53.0805 N   0  0  0  0  0  0  0  0  0  0  0  0
    2.6479   44.9846   53.7663 C   0  0  0  0  0  0  0  0  0  0  0  0
    3.5510   45.8180   54.4006 N   0  0  0  0  0  0  0  0  0  0  0  0
    4.5267   45.2276   55.3326 C   0  0  0  0  0  0  0  0  0  0  0  0
    5.9669   45.3268   54.7791 C   0  0  0  0  0  0  0  0  0  0  0  0
    6.3543   46.7294   54.4572 N   0  0  0  0  0  0  0  0  0  0  0  0
    7.4609   46.8131   53.6019 C   0  0  0  0  0  0  0  0  0  0  0  0
    8.6317   46.0988   53.9142 C   0  0  0  0  0  0  0  0  0  0  0  0
    9.7650   46.1433   53.0958 C   0  0  0  0  0  0  0  0  0  0  0  0
    9.7536   46.9112   51.9366 C   0  0  0  0  0  0  0  0  0  0  0  0
    8.6106   47.6292   51.6025 C   0  0  0  0  0  0  0  0  0  0  0  0
    7.4804   47.5810   52.4281 C   0  0  0  0  0  0  0  0  0  0  0  0
    5.2164   47.6637   54.2961 C   0  0  0  0  0  0  0  0  0  0  0  0
    4.0105   46.9813   53.6203 C   0  0  0  0  0  0  0  0  0  0  0  0
    1.3453   45.2417   53.8902 N   0  0  0  0  0  0  0  0  0  0  0  0
    0.4715   44.4380   53.2970 C   0  0  0  0  0  0  0  0  0  0  0  0
   -0.8271   44.7375   53.4297 N   0  0  0  0  0  0  0  0  0  0  0  0
   -1.7309   43.9354   52.8223 C   0  0  0  0  0  0  0  0  0  0  0  0
   -1.3583   42.8403   52.0774 C   0  0  0  0  0  0  0  0  0  0  0  0
   -0.0640   42.5094   51.9157 N   0  0  0  0  0  0  0  0  0  0  0  0
    0.8452   43.3212   52.5452 C   0  0  0  0  0  0  0  0  0  0  0  0
    4.1088   40.5118   50.3912 C   0  0  0  0  0  0  0  0  0  0  0  0
    5.2087   40.3623   49.5394 C   0  0  0  0  0  0  0  0  0  0  0  0
    6.8534   41.3486   48.5341 H   0  0  0  0  0  0  0  0  0  0  0  0
    6.2561   43.6003   49.4316 H   0  0  0  0  0  0  0  0  0  0  0  0
    4.2937   43.8602   50.9375 H   0  0  0  0  0  0  0  0  0  0  0  0
    1.8827   41.3336   51.6107 H   0  0  0  0  0  0  0  0  0  0  0  0
    4.4744   45.7629   56.2921 H   0  0  0  0  0  0  0  0  0  0  0  0
    4.2792   44.1640   55.4651 H   0  0  0  0  0  0  0  0  0  0  0  0
    6.6635   44.9316   55.5331 H   0  0  0  0  0  0  0  0  0  0  0  0
    6.0098   44.7439   53.8472 H   0  0  0  0  0  0  0  0  0  0  0  0
    8.6567   45.4877   54.8284 H   0  0  0  0  0  0  0  0  0  0  0  0
   10.6642   45.5715   53.3687 H   0  0  0  0  0  0  0  0  0  0  0  0
   10.6419   46.9505   51.2890 H   0  0  0  0  0  0  0  0  0  0  0  0
    8.5941   48.2375   50.6861 H   0  0  0  0  0  0  0  0  0  0  0  0
    6.5868   48.1588   52.1496 H   0  0  0  0  0  0  0  0  0  0  0  0
    4.9105   48.0275   55.2881 H   0  0  0  0  0  0  0  0  0  0  0  0
    5.5436   48.4956   53.6551 H   0  0  0  0  0  0  0  0  0  0  0  0
    3.1874   47.7063   53.5382 H   0  0  0  0  0  0  0  0  0  0  0  0
    4.3204   46.6325   52.6242 H   0  0  0  0  0  0  0  0  0  0  0  0
   -2.8011   44.1667   52.9275 H   0  0  0  0  0  0  0  0  0  0  0  0
   -2.1351   42.2220   51.6038 H   0  0  0  0  0  0  0  0  0  0  0  0
    3.4991   39.6322   50.6451 H   0  0  0  0  0  0  0  0  0  0  0  0
    5.4612   39.3696   49.1386 H   0  0  0  0  0  0  0  0  0  0  0  0
  1  2  2  0
  2  3  1  0
  3  4  2  0
  4  5  1  0
  5  6  1  0
  6  7  2  0
  7  8  1  0
  8  9  1  0
  9 10  1  0
 10 11  1  0
 11 12  1  0
 12 13  1  0
 13 14  2  0
 14 15  1  0
 15 16  2  0
 16 17  1  0
 17 18  2  0
 12 19  1  0
 19 20  1  0
  8 21  2  0
 21 22  1  0
 22 23  2  0
 23 24  1  0
 24 25  2  0
 25 26  1  0
 26 27  2  0
  4 28  1  0
 28 29  2  0
 29  1  1  0
 27  6  1  0
 20  9  1  0
 27 22  1  0
 18 13  1  0
  1 30  1  0
  2 31  1  0
  3 32  1  0
  5 33  1  0
 10 34  1  0
 10 35  1  0
 11 36  1  0
 11 37  1  0
 14 38  1  0
 15 39  1  0
 16 40  1  0
 17 41  1  0
 18 42  1  0
 19 43  1  0
 19 44  1  0
 20 45  1  0
 20 46  1  0
 24 47  1  0
 25 48  1  0
 28 49  1  0
 29 50  1  0
M  END
>  <meeko>  (98) 
{"is_sidechain": false}

>  <CID>  (98) 
Z1041114218

>  <pose_index>  (98) 
2

>  <docking_score>  (98) 
-9.737

>  <rmsd_to_best_selected>  (98) 
0.8341506747699098

>  <MWT>  (98) 
383.4589999999997

>  <TPSA>  (98) 
70.07000000000001

>  <logP>  (98) 
3.490000000000002

>  <HBD>  (98) 
1

>  <HBA>  (98) 
7

>  <SMILES>  (98) 
[H]c1nc2nc(N3C([H])([H])C([H])([H])N(c4c([H])c([H])c([H])c([H])c4[H])C([H])([H])C3([H])[H])nc(N([H])c3c([H])c([H])c([H])c([H])c3[H])c2nc1[H]

$$$$
Z1041114218_pose5
     RDKit          3D

 50 54  0  0  0  0  0  0  0  0999 V2000
    4.3563   38.6865   51.8997 C   0  0  0  0  0  0  0  0  0  0  0  0
    3.5188   38.8402   50.7996 C   0  0  0  0  0  0  0  0  0  0  0  0
    3.2366   40.1194   50.3099 C   0  0  0  0  0  0  0  0  0  0  0  0
    3.7928   41.2660   50.8986 C   0  0  0  0  0  0  0  0  0  0  0  0
    3.4556   42.5242   50.3763 N   0  0  0  0  0  0  0  0  0  0  0  0
    2.8727   43.6755   50.9784 C   0  0  0  0  0  0  0  0  0  0  0  0
    3.6195   44.7676   51.2346 N   0  0  0  0  0  0  0  0  0  0  0  0
    3.0459   45.8153   51.8295 C   0  0  0  0  0  0  0  0  0  0  0  0
    3.8113   46.9325   52.1096 N   0  0  0  0  0  0  0  0  0  0  0  0
    3.6737   47.5739   53.4280 C   0  0  0  0  0  0  0  0  0  0  0  0
    4.9550   47.4069   54.2746 C   0  0  0  0  0  0  0  0  0  0  0  0
    6.1661   47.9291   53.5794 N   0  0  0  0  0  0  0  0  0  0  0  0
    7.3646   47.4426   54.1176 C   0  0  0  0  0  0  0  0  0  0  0  0
    7.4257   46.1148   54.5797 C   0  0  0  0  0  0  0  0  0  0  0  0
    8.5950   45.5759   55.1245 C   0  0  0  0  0  0  0  0  0  0  0  0
    9.7399   46.3586   55.2226 C   0  0  0  0  0  0  0  0  0  0  0  0
    9.7097   47.6751   54.7750 C   0  0  0  0  0  0  0  0  0  0  0  0
    8.5338   48.2083   54.2321 C   0  0  0  0  0  0  0  0  0  0  0  0
    6.0181   48.0830   52.1135 C   0  0  0  0  0  0  0  0  0  0  0  0
    5.1564   46.9571   51.5058 C   0  0  0  0  0  0  0  0  0  0  0  0
    1.7630   45.8119   52.1941 N   0  0  0  0  0  0  0  0  0  0  0  0
    1.0255   44.7379   51.9421 C   0  0  0  0  0  0  0  0  0  0  0  0
   -0.2624   44.7770   52.3077 N   0  0  0  0  0  0  0  0  0  0  0  0
   -1.0313   43.6952   52.0483 C   0  0  0  0  0  0  0  0  0  0  0  0
   -0.5374   42.5741   51.4229 C   0  0  0  0  0  0  0  0  0  0  0  0
    0.7496   42.4981   51.0355 N   0  0  0  0  0  0  0  0  0  0  0  0
    1.5261   43.5941   51.3129 C   0  0  0  0  0  0  0  0  0  0  0  0
    4.6153   41.0892   52.0160 C   0  0  0  0  0  0  0  0  0  0  0  0
    4.9006   39.8123   52.5115 C   0  0  0  0  0  0  0  0  0  0  0  0
    4.5869   37.6818   52.2837 H   0  0  0  0  0  0  0  0  0  0  0  0
    3.0788   37.9561   50.3152 H   0  0  0  0  0  0  0  0  0  0  0  0
    2.5650   40.2293   49.4457 H   0  0  0  0  0  0  0  0  0  0  0  0
    3.9735   42.7956   49.5433 H   0  0  0  0  0  0  0  0  0  0  0  0
    3.4771   48.6467   53.2848 H   0  0  0  0  0  0  0  0  0  0  0  0
    2.8417   47.0914   53.9617 H   0  0  0  0  0  0  0  0  0  0  0  0
    4.8273   47.9534   55.2207 H   0  0  0  0  0  0  0  0  0  0  0  0
    5.1050   46.3312   54.4485 H   0  0  0  0  0  0  0  0  0  0  0  0
    6.5279   45.4831   54.5104 H   0  0  0  0  0  0  0  0  0  0  0  0
    8.6092   44.5334   55.4753 H   0  0  0  0  0  0  0  0  0  0  0  0
   10.6626   45.9399   55.6508 H   0  0  0  0  0  0  0  0  0  0  0  0
   10.6123   48.2996   54.8475 H   0  0  0  0  0  0  0  0  0  0  0  0
    8.5272   49.2528   53.8874 H   0  0  0  0  0  0  0  0  0  0  0  0
    5.5399   49.0510   51.9031 H   0  0  0  0  0  0  0  0  0  0  0  0
    7.0192   48.0312   51.6604 H   0  0  0  0  0  0  0  0  0  0  0  0
    5.0609   47.1229   50.4226 H   0  0  0  0  0  0  0  0  0  0  0  0
    5.6475   45.9938   51.7081 H   0  0  0  0  0  0  0  0  0  0  0  0
   -2.0896   43.7125   52.3480 H   0  0  0  0  0  0  0  0  0  0  0  0
   -1.2077   41.7223   51.2354 H   0  0  0  0  0  0  0  0  0  0  0  0
    5.0458   41.9703   52.5143 H   0  0  0  0  0  0  0  0  0  0  0  0
    5.5567   39.6977   53.3870 H   0  0  0  0  0  0  0  0  0  0  0  0
  1  2  2  0
  2  3  1  0
  3  4  2  0
  4  5  1  0
  5  6  1  0
  6  7  2  0
  7  8  1  0
  8  9  1  0
  9 10  1  0
 10 11  1  0
 11 12  1  0
 12 13  1  0
 13 14  2  0
 14 15  1  0
 15 16  2  0
 16 17  1  0
 17 18  2  0
 12 19  1  0
 19 20  1  0
  8 21  2  0
 21 22  1  0
 22 23  2  0
 23 24  1  0
 24 25  2  0
 25 26  1  0
 26 27  2  0
  4 28  1  0
 28 29  2  0
 29  1  1  0
 27  6  1  0
 20  9  1  0
 27 22  1  0
 18 13  1  0
  1 30  1  0
  2 31  1  0
  3 32  1  0
  5 33  1  0
 10 34  1  0
 10 35  1  0
 11 36  1  0
 11 37  1  0
 14 38  1  0
 15 39  1  0
 16 40  1  0
 17 41  1  0
 18 42  1  0
 19 43  1  0
 19 44  1  0
 20 45  1  0
 20 46  1  0
 24 47  1  0
 25 48  1  0
 28 49  1  0
 29 50  1  0
M  END
>  <meeko>  (99) 
{"is_sidechain": false}

>  <CID>  (99) 
Z1041114218

>  <pose_index>  (99) 
5

>  <docking_score>  (99) 
-9.085

>  <rmsd_to_best_selected>  (99) 
1.6036343553899524

>  <MWT>  (99) 
383.4589999999997

>  <TPSA>  (99) 
70.07000000000001

>  <logP>  (99) 
3.490000000000002

>  <HBD>  (99) 
1

>  <HBA>  (99) 
7

>  <SMILES>  (99) 
[H]c1nc2nc(N3C([H])([H])C([H])([H])N(c4c([H])c([H])c([H])c([H])c4[H])C([H])([H])C3([H])[H])nc(N([H])c3c([H])c([H])c([H])c([H])c3[H])c2nc1[H]

$$$$
Z1041114218_pose8
     RDKit          3D

 50 54  0  0  0  0  0  0  0  0999 V2000
    4.5171   38.6769   51.9341 C   0  0  0  0  0  0  0  0  0  0  0  0
    4.3544   39.6177   50.9214 C   0  0  0  0  0  0  0  0  0  0  0  0
    3.7392   40.8427   51.1983 C   0  0  0  0  0  0  0  0  0  0  0  0
    3.2871   41.1569   52.4889 C   0  0  0  0  0  0  0  0  0  0  0  0
    2.6568   42.3935   52.7002 N   0  0  0  0  0  0  0  0  0  0  0  0
    2.6119   43.5818   51.9146 C   0  0  0  0  0  0  0  0  0  0  0  0
    3.6091   44.4848   51.9817 N   0  0  0  0  0  0  0  0  0  0  0  0
    3.5163   45.6003   51.2554 C   0  0  0  0  0  0  0  0  0  0  0  0
    4.5300   46.5391   51.3329 N   0  0  0  0  0  0  0  0  0  0  0  0
    4.2761   47.7978   52.0536 C   0  0  0  0  0  0  0  0  0  0  0  0
    5.1151   47.8858   53.3496 C   0  0  0  0  0  0  0  0  0  0  0  0
    6.5748   47.7336   53.0899 N   0  0  0  0  0  0  0  0  0  0  0  0
    7.3083   47.4077   54.2393 C   0  0  0  0  0  0  0  0  0  0  0  0
    6.7572   46.5190   55.1805 C   0  0  0  0  0  0  0  0  0  0  0  0
    7.4440   46.1564   56.3437 C   0  0  0  0  0  0  0  0  0  0  0  0
    8.7079   46.6798   56.5946 C   0  0  0  0  0  0  0  0  0  0  0  0
    9.2769   47.5617   55.6823 C   0  0  0  0  0  0  0  0  0  0  0  0
    8.5818   47.9209   54.5203 C   0  0  0  0  0  0  0  0  0  0  0  0
    6.9090   47.1038   51.7915 C   0  0  0  0  0  0  0  0  0  0  0  0
    5.9004   46.0005   51.4149 C   0  0  0  0  0  0  0  0  0  0  0  0
    2.4634   45.8594   50.4794 N   0  0  0  0  0  0  0  0  0  0  0  0
    1.4816   44.9708   50.4111 C   0  0  0  0  0  0  0  0  0  0  0  0
    0.4486   45.2572   49.6090 N   0  0  0  0  0  0  0  0  0  0  0  0
   -0.5578   44.3573   49.5199 C   0  0  0  0  0  0  0  0  0  0  0  0
   -0.5462   43.1696   50.2136 C   0  0  0  0  0  0  0  0  0  0  0  0
    0.4768   42.8431   51.0253 N   0  0  0  0  0  0  0  0  0  0  0  0
    1.4857   43.7662   51.1211 C   0  0  0  0  0  0  0  0  0  0  0  0
    3.4419   40.1893   53.4861 C   0  0  0  0  0  0  0  0  0  0  0  0
    4.0551   38.9618   53.2161 C   0  0  0  0  0  0  0  0  0  0  0  0
    5.0072   37.7150   51.7231 H   0  0  0  0  0  0  0  0  0  0  0  0
    4.7095   39.3978   49.9038 H   0  0  0  0  0  0  0  0  0  0  0  0
    3.6071   41.5747   50.3880 H   0  0  0  0  0  0  0  0  0  0  0  0
    1.8573   42.3662   53.3298 H   0  0  0  0  0  0  0  0  0  0  0  0
    4.5373   48.6432   51.4002 H   0  0  0  0  0  0  0  0  0  0  0  0
    3.2114   47.8305   52.3280 H   0  0  0  0  0  0  0  0  0  0  0  0
    4.9396   48.8652   53.8188 H   0  0  0  0  0  0  0  0  0  0  0  0
    4.8030   47.0627   54.0091 H   0  0  0  0  0  0  0  0  0  0  0  0
    5.7580   46.0975   54.9964 H   0  0  0  0  0  0  0  0  0  0  0  0
    6.9851   45.4583   57.0592 H   0  0  0  0  0  0  0  0  0  0  0  0
    9.2532   46.3983   57.5075 H   0  0  0  0  0  0  0  0  0  0  0  0
   10.2766   47.9788   55.8738 H   0  0  0  0  0  0  0  0  0  0  0  0
    9.0466   48.6223   53.8118 H   0  0  0  0  0  0  0  0  0  0  0  0
    6.9007   47.8763   51.0084 H   0  0  0  0  0  0  0  0  0  0  0  0
    7.9035   46.6425   51.8807 H   0  0  0  0  0  0  0  0  0  0  0  0
    6.1790   45.5771   50.4387 H   0  0  0  0  0  0  0  0  0  0  0  0
    5.9246   45.2244   52.1941 H   0  0  0  0  0  0  0  0  0  0  0  0
   -1.4156   44.5834   48.8695 H   0  0  0  0  0  0  0  0  0  0  0  0
   -1.3899   42.4725   50.1028 H   0  0  0  0  0  0  0  0  0  0  0  0
    3.0746   40.3973   54.5018 H   0  0  0  0  0  0  0  0  0  0  0  0
    4.1728   38.2193   54.0190 H   0  0  0  0  0  0  0  0  0  0  0  0
  1  2  2  0
  2  3  1  0
  3  4  2  0
  4  5  1  0
  5  6  1  0
  6  7  2  0
  7  8  1  0
  8  9  1  0
  9 10  1  0
 10 11  1  0
 11 12  1  0
 12 13  1  0
 13 14  2  0
 14 15  1  0
 15 16  2  0
 16 17  1  0
 17 18  2  0
 12 19  1  0
 19 20  1  0
  8 21  2  0
 21 22  1  0
 22 23  2  0
 23 24  1  0
 24 25  2  0
 25 26  1  0
 26 27  2  0
  4 28  1  0
 28 29  2  0
 29  1  1  0
 27  6  1  0
 20  9  1  0
 27 22  1  0
 18 13  1  0
  1 30  1  0
  2 31  1  0
  3 32  1  0
  5 33  1  0
 10 34  1  0
 10 35  1  0
 11 36  1  0
 11 37  1  0
 14 38  1  0
 15 39  1  0
 16 40  1  0
 17 41  1  0
 18 42  1  0
 19 43  1  0
 19 44  1  0
 20 45  1  0
 20 46  1  0
 24 47  1  0
 25 48  1  0
 28 49  1  0
 29 50  1  0
M  END
>  <meeko>  (100) 
{"is_sidechain": false}

>  <CID>  (100) 
Z1041114218

>  <pose_index>  (100) 
8

>  <docking_score>  (100) 
-8.539

>  <rmsd_to_best_selected>  (100) 
1.7786426856156754

>  <MWT>  (100) 
383.4589999999997

>  <TPSA>  (100) 
70.07000000000001

>  <logP>  (100) 
3.490000000000002

>  <HBD>  (100) 
1

>  <HBA>  (100) 
7

>  <SMILES>  (100) 
[H]c1nc2nc(N3C([H])([H])C([H])([H])N(c4c([H])c([H])c([H])c([H])c4[H])C([H])([H])C3([H])[H])nc(N([H])c3c([H])c([H])c([H])c([H])c3[H])c2nc1[H]

$$$$
Z1041114218_pose10
     RDKit          3D

 50 54  0  0  0  0  0  0  0  0999 V2000
    4.4014   39.0378   53.2714 C   0  0  0  0  0  0  0  0  0  0  0  0
    3.0830   39.2907   52.9025 C   0  0  0  0  0  0  0  0  0  0  0  0
    2.8019   40.2734   51.9486 C   0  0  0  0  0  0  0  0  0  0  0  0
    3.8267   41.0115   51.3359 C   0  0  0  0  0  0  0  0  0  0  0  0
    3.4807   41.9995   50.4017 N   0  0  0  0  0  0  0  0  0  0  0  0
    3.0967   43.3619   50.5601 C   0  0  0  0  0  0  0  0  0  0  0  0
    4.0237   44.3145   50.7805 N   0  0  0  0  0  0  0  0  0  0  0  0
    3.6220   45.5754   50.9561 C   0  0  0  0  0  0  0  0  0  0  0  0
    4.5685   46.5536   51.1995 N   0  0  0  0  0  0  0  0  0  0  0  0
    4.1779   47.7384   51.9828 C   0  0  0  0  0  0  0  0  0  0  0  0
    4.8875   47.7664   53.3556 C   0  0  0  0  0  0  0  0  0  0  0  0
    6.3711   47.7067   53.2285 N   0  0  0  0  0  0  0  0  0  0  0  0
    7.0123   47.3294   54.4155 C   0  0  0  0  0  0  0  0  0  0  0  0
    7.1904   48.2811   55.4378 C   0  0  0  0  0  0  0  0  0  0  0  0
    7.8212   47.9601   56.6433 C   0  0  0  0  0  0  0  0  0  0  0  0
    8.2919   46.6698   56.8590 C   0  0  0  0  0  0  0  0  0  0  0  0
    8.1317   45.7086   55.8662 C   0  0  0  0  0  0  0  0  0  0  0  0
    7.5000   46.0382   54.6601 C   0  0  0  0  0  0  0  0  0  0  0  0
    6.8598   47.1983   51.9257 C   0  0  0  0  0  0  0  0  0  0  0  0
    5.9539   46.0796   51.3744 C   0  0  0  0  0  0  0  0  0  0  0  0
    2.3350   45.9216   50.9380 N   0  0  0  0  0  0  0  0  0  0  0  0
    1.4202   44.9846   50.7191 C   0  0  0  0  0  0  0  0  0  0  0  0
    0.1387   45.3731   50.6918 N   0  0  0  0  0  0  0  0  0  0  0  0
   -0.8058   44.4342   50.4599 C   0  0  0  0  0  0  0  0  0  0  0  0
   -0.4916   43.1107   50.2475 C   0  0  0  0  0  0  0  0  0  0  0  0
    0.7844   42.6834   50.2626 N   0  0  0  0  0  0  0  0  0  0  0  0
    1.7351   43.6392   50.5115 C   0  0  0  0  0  0  0  0  0  0  0  0
    5.1417   40.7549   51.7370 C   0  0  0  0  0  0  0  0  0  0  0  0
    5.4297   39.7737   52.6918 C   0  0  0  0  0  0  0  0  0  0  0  0
    4.6285   38.2610   54.0164 H   0  0  0  0  0  0  0  0  0  0  0  0
    2.2634   38.7181   53.3611 H   0  0  0  0  0  0  0  0  0  0  0  0
    1.7558   40.4723   51.6724 H   0  0  0  0  0  0  0  0  0  0  0  0
    3.8500   41.8531   49.4644 H   0  0  0  0  0  0  0  0  0  0  0  0
    4.4496   48.6443   51.4211 H   0  0  0  0  0  0  0  0  0  0  0  0
    3.0923   47.6966   52.1553 H   0  0  0  0  0  0  0  0  0  0  0  0
    4.6144   48.6964   53.8757 H   0  0  0  0  0  0  0  0  0  0  0  0
    4.5628   46.8795   53.9195 H   0  0  0  0  0  0  0  0  0  0  0  0
    6.8227   49.3063   55.2835 H   0  0  0  0  0  0  0  0  0  0  0  0
    7.9450   48.7281   57.4211 H   0  0  0  0  0  0  0  0  0  0  0  0
    8.7870   46.4112   57.8067 H   0  0  0  0  0  0  0  0  0  0  0  0
    8.5024   44.6858   56.0289 H   0  0  0  0  0  0  0  0  0  0  0  0
    7.3839   45.2651   53.8862 H   0  0  0  0  0  0  0  0  0  0  0  0
    6.8805   48.0284   51.2041 H   0  0  0  0  0  0  0  0  0  0  0  0
    7.8667   46.7817   52.0759 H   0  0  0  0  0  0  0  0  0  0  0  0
    6.3452   45.7476   50.4015 H   0  0  0  0  0  0  0  0  0  0  0  0
    5.9495   45.2481   52.0946 H   0  0  0  0  0  0  0  0  0  0  0  0
   -1.8627   44.7384   50.4401 H   0  0  0  0  0  0  0  0  0  0  0  0
   -1.2999   42.3880   50.0617 H   0  0  0  0  0  0  0  0  0  0  0  0
    5.9645   41.3352   51.2939 H   0  0  0  0  0  0  0  0  0  0  0  0
    6.4727   39.5835   52.9851 H   0  0  0  0  0  0  0  0  0  0  0  0
  1  2  2  0
  2  3  1  0
  3  4  2  0
  4  5  1  0
  5  6  1  0
  6  7  2  0
  7  8  1  0
  8  9  1  0
  9 10  1  0
 10 11  1  0
 11 12  1  0
 12 13  1  0
 13 14  2  0
 14 15  1  0
 15 16  2  0
 16 17  1  0
 17 18  2  0
 12 19  1  0
 19 20  1  0
  8 21  2  0
 21 22  1  0
 22 23  2  0
 23 24  1  0
 24 25  2  0
 25 26  1  0
 26 27  2  0
  4 28  1  0
 28 29  2  0
 29  1  1  0
 27  6  1  0
 20  9  1  0
 27 22  1  0
 18 13  1  0
  1 30  1  0
  2 31  1  0
  3 32  1  0
  5 33  1  0
 10 34  1  0
 10 35  1  0
 11 36  1  0
 11 37  1  0
 14 38  1  0
 15 39  1  0
 16 40  1  0
 17 41  1  0
 18 42  1  0
 19 43  1  0
 19 44  1  0
 20 45  1  0
 20 46  1  0
 24 47  1  0
 25 48  1  0
 28 49  1  0
 29 50  1  0
M  END
>  <meeko>  (101) 
{"is_sidechain": false}

>  <CID>  (101) 
Z1041114218

>  <pose_index>  (101) 
10

>  <docking_score>  (101) 
-8.265

>  <rmsd_to_best_selected>  (101) 
1.6144181629425216

>  <MWT>  (101) 
383.4589999999997

>  <TPSA>  (101) 
70.07000000000001

>  <logP>  (101) 
3.490000000000002

>  <HBD>  (101) 
1

>  <HBA>  (101) 
7

>  <SMILES>  (101) 
[H]c1nc2nc(N3C([H])([H])C([H])([H])N(c4c([H])c([H])c([H])c([H])c4[H])C([H])([H])C3([H])[H])nc(N([H])c3c([H])c([H])c([H])c([H])c3[H])c2nc1[H]

$$$$
Z107740192_pose10
     RDKit          3D

 54 57  0  0  0  0  0  0  0  0999 V2000
    5.7642   45.4009   56.9587 N   0  0  0  0  0  0  0  0  0  0  0  0
    5.3156   45.2384   55.8993 C   0  0  0  0  0  0  0  0  0  0  0  0
    4.6796   44.9656   54.6139 C   0  0  0  0  0  0  0  0  0  0  0  0
    3.1751   44.9177   54.6404 C   0  0  0  0  0  0  0  0  0  0  0  0
    2.5214   45.8041   55.4410 N   0  0  0  0  0  0  0  0  0  0  0  0
    1.1813   45.7160   55.5020 C   0  0  0  0  0  0  0  0  0  0  0  0
    0.4656   46.6030   56.2986 C   0  0  0  0  0  0  0  0  0  0  0  0
   -0.9251   46.5353   56.3894 C   0  0  0  0  0  0  0  0  0  0  0  0
   -1.6103   45.5629   55.6727 C   0  0  0  0  0  0  0  0  0  0  0  0
   -0.8995   44.6696   54.8713 C   0  0  0  0  0  0  0  0  0  0  0  0
    0.4873   44.7301   54.7723 C   0  0  0  0  0  0  0  0  0  0  0  0
    1.1394   43.8512   53.9874 N   0  0  0  0  0  0  0  0  0  0  0  0
    2.4814   43.9439   53.9001 C   0  0  0  0  0  0  0  0  0  0  0  0
    3.1898   43.0499   53.0699 N   0  0  0  0  0  0  0  0  0  0  0  0
    2.8193   43.1232   51.6518 C   0  0  0  0  0  0  0  0  0  0  0  0
    4.0831   43.2660   50.7814 C   0  0  0  0  0  0  0  0  0  0  0  0
    4.0591   42.3578   49.5441 C   0  0  0  0  0  0  0  0  0  0  0  0
    5.2743   42.5904   48.6416 C   0  0  0  0  0  0  0  0  0  0  0  0
    6.5117   43.0877   49.3893 C   0  0  0  0  0  0  0  0  0  0  0  0
    6.5586   42.5498   50.8113 C   0  0  0  0  0  0  0  0  0  0  0  0
    5.3385   42.9781   51.6311 C   0  0  0  0  0  0  0  0  0  0  0  0
    5.1504   46.2883   53.5167 S   0  0  0  0  0  0  0  0  0  0  0  0
    5.3403   47.5308   54.2416 O   0  0  0  0  0  0  0  0  0  0  0  0
    4.2778   46.2715   52.3488 O   0  0  0  0  0  0  0  0  0  0  0  0
    6.7555   45.7952   52.8980 C   0  0  0  0  0  0  0  0  0  0  0  0
    7.1705   46.2155   51.6280 C   0  0  0  0  0  0  0  0  0  0  0  0
    8.4177   45.8121   51.1505 C   0  0  0  0  0  0  0  0  0  0  0  0
    9.2225   44.9893   51.9330 C   0  0  0  0  0  0  0  0  0  0  0  0
   10.4185   44.6027   51.4687 F   0  0  0  0  0  0  0  0  0  0  0  0
    8.8038   44.5549   53.1879 C   0  0  0  0  0  0  0  0  0  0  0  0
    7.5593   44.9540   53.6773 C   0  0  0  0  0  0  0  0  0  0  0  0
    5.0132   43.9658   54.2993 H   0  0  0  0  0  0  0  0  0  0  0  0
    1.0064   47.3730   56.8684 H   0  0  0  0  0  0  0  0  0  0  0  0
   -1.4744   47.2467   57.0236 H   0  0  0  0  0  0  0  0  0  0  0  0
   -2.7065   45.4975   55.7367 H   0  0  0  0  0  0  0  0  0  0  0  0
   -1.4466   43.9010   54.3056 H   0  0  0  0  0  0  0  0  0  0  0  0
    4.1906   43.2701   53.1716 H   0  0  0  0  0  0  0  0  0  0  0  0
    2.2837   42.2053   51.3678 H   0  0  0  0  0  0  0  0  0  0  0  0
    2.1720   43.9983   51.4934 H   0  0  0  0  0  0  0  0  0  0  0  0
    4.1093   44.3022   50.4132 H   0  0  0  0  0  0  0  0  0  0  0  0
    4.0563   41.3082   49.8734 H   0  0  0  0  0  0  0  0  0  0  0  0
    3.1541   42.5940   48.9651 H   0  0  0  0  0  0  0  0  0  0  0  0
    5.5261   41.6405   48.1473 H   0  0  0  0  0  0  0  0  0  0  0  0
    4.9953   43.3768   47.9249 H   0  0  0  0  0  0  0  0  0  0  0  0
    7.4118   42.7549   48.8516 H   0  0  0  0  0  0  0  0  0  0  0  0
    6.4674   44.1857   49.4374 H   0  0  0  0  0  0  0  0  0  0  0  0
    6.5923   41.4510   50.7737 H   0  0  0  0  0  0  0  0  0  0  0  0
    7.4548   42.9608   51.2989 H   0  0  0  0  0  0  0  0  0  0  0  0
    5.0987   42.1731   52.3414 H   0  0  0  0  0  0  0  0  0  0  0  0
    5.6063   43.9193   52.1336 H   0  0  0  0  0  0  0  0  0  0  0  0
    6.5204   46.8563   51.0141 H   0  0  0  0  0  0  0  0  0  0  0  0
    8.7634   46.1427   50.1599 H   0  0  0  0  0  0  0  0  0  0  0  0
    9.4506   43.9003   53.7905 H   0  0  0  0  0  0  0  0  0  0  0  0
    7.2137   44.6118   54.6639 H   0  0  0  0  0  0  0  0  0  0  0  0
  1  2  3  0
  2  3  1  0
  3  4  1  0
  4  5  2  0
  5  6  1  0
  6  7  2  0
  7  8  1  0
  8  9  2  0
  9 10  1  0
 10 11  2  0
 11 12  1  0
 12 13  2  0
 13 14  1  0
 14 15  1  0
 15 16  1  0
 16 17  1  0
 17 18  1  0
 18 19  1  0
 19 20  1  0
 20 21  1  0
  3 22  1  0
 22 23  2  0
 22 24  2  0
 22 25  1  0
 25 26  2  0
 26 27  1  0
 27 28  2  0
 28 29  1  0
 28 30  1  0
 30 31  2  0
 13  4  1  0
 21 16  1  0
 31 25  1  0
 11  6  1  0
  3 32  1  0
  7 33  1  0
  8 34  1  0
  9 35  1  0
 10 36  1  0
 14 37  1  0
 15 38  1  0
 15 39  1  0
 16 40  1  0
 17 41  1  0
 17 42  1  0
 18 43  1  0
 18 44  1  0
 19 45  1  0
 19 46  1  0
 20 47  1  0
 20 48  1  0
 21 49  1  0
 21 50  1  0
 26 51  1  0
 27 52  1  0
 30 53  1  0
 31 54  1  0
M  END
>  <meeko>  (102) 
{"is_sidechain": false}

>  <CID>  (102) 
Z107740192

>  <pose_index>  (102) 
10

>  <docking_score>  (102) 
-7.922

>  <rmsd_to_best_selected>  (102) 
1.4496657906626498

>  <MWT>  (102) 
438.52799999999974

>  <TPSA>  (102) 
95.74000000000001

>  <logP>  (102) 
4.799680000000004

>  <HBD>  (102) 
1

>  <HBA>  (102) 
6

>  <SMILES>  (102) 
[H]c1c([H])c(S(=O)(=O)C([H])(C#N)c2nc3c([H])c([H])c([H])c([H])c3nc2N([H])C([H])([H])C2([H])C([H])([H])C([H])([H])C([H])([H])C([H])([H])C2([H])[H])c([H])c([H])c1F

$$$$
Z107740192_pose1
     RDKit          3D

 54 57  0  0  0  0  0  0  0  0999 V2000
    6.1100   44.7170   56.1210 N   0  0  0  0  0  0  0  0  0  0  0  0
    5.4760   44.8650   55.1580 C   0  0  0  0  0  0  0  0  0  0  0  0
    4.6490   45.1490   53.9890 C   0  0  0  0  0  0  0  0  0  0  0  0
    3.1640   45.0630   54.2180 C   0  0  0  0  0  0  0  0  0  0  0  0
    2.6810   45.4490   55.4320 N   0  0  0  0  0  0  0  0  0  0  0  0
    1.3610   45.3150   55.6470 C   0  0  0  0  0  0  0  0  0  0  0  0
    0.8160   45.7010   56.8660 C   0  0  0  0  0  0  0  0  0  0  0  0
   -0.5480   45.5690   57.1240 C   0  0  0  0  0  0  0  0  0  0  0  0
   -1.3810   45.0400   56.1470 C   0  0  0  0  0  0  0  0  0  0  0  0
   -0.8420   44.6500   54.9200 C   0  0  0  0  0  0  0  0  0  0  0  0
    0.5170   44.7790   54.6530 C   0  0  0  0  0  0  0  0  0  0  0  0
    1.0010   44.3930   53.4570 N   0  0  0  0  0  0  0  0  0  0  0  0
    2.3200   44.5440   53.2210 C   0  0  0  0  0  0  0  0  0  0  0  0
    2.8520   44.1670   51.9700 N   0  0  0  0  0  0  0  0  0  0  0  0
    2.8590   42.7190   51.7300 C   0  0  0  0  0  0  0  0  0  0  0  0
    4.2240   42.2840   51.1610 C   0  0  0  0  0  0  0  0  0  0  0  0
    5.0460   43.4620   50.6200 C   0  0  0  0  0  0  0  0  0  0  0  0
    6.4370   43.0220   50.1560 C   0  0  0  0  0  0  0  0  0  0  0  0
    6.4980   41.5690   49.6840 C   0  0  0  0  0  0  0  0  0  0  0  0
    5.1800   41.1250   49.0670 C   0  0  0  0  0  0  0  0  0  0  0  0
    4.0170   41.2260   50.0580 C   0  0  0  0  0  0  0  0  0  0  0  0
    5.0150   46.8210   53.4930 S   0  0  0  0  0  0  0  0  0  0  0  0
    4.9230   47.7340   54.6170 O   0  0  0  0  0  0  0  0  0  0  0  0
    4.2870   47.1250   52.2670 O   0  0  0  0  0  0  0  0  0  0  0  0
    6.7350   46.7680   53.0050 C   0  0  0  0  0  0  0  0  0  0  0  0
    7.0810   46.3140   51.7260 C   0  0  0  0  0  0  0  0  0  0  0  0
    8.4270   46.2620   51.3620 C   0  0  0  0  0  0  0  0  0  0  0  0
    9.4040   46.6470   52.2740 C   0  0  0  0  0  0  0  0  0  0  0  0
   10.6950   46.5930   51.9210 F   0  0  0  0  0  0  0  0  0  0  0  0
    9.0640   47.0800   53.5530 C   0  0  0  0  0  0  0  0  0  0  0  0
    7.7210   47.1390   53.9290 C   0  0  0  0  0  0  0  0  0  0  0  0
    4.8886   44.3832   53.2366 H   0  0  0  0  0  0  0  0  0  0  0  0
    1.4736   46.1188   57.6425 H   0  0  0  0  0  0  0  0  0  0  0  0
   -0.9611   45.8816   58.0944 H   0  0  0  0  0  0  0  0  0  0  0  0
   -2.4585   44.9291   56.3388 H   0  0  0  0  0  0  0  0  0  0  0  0
   -1.5054   44.2321   54.1485 H   0  0  0  0  0  0  0  0  0  0  0  0
    2.2830   44.6290   51.2470 H   0  0  0  0  0  0  0  0  0  0  0  0
    2.6751   42.1920   52.6779 H   0  0  0  0  0  0  0  0  0  0  0  0
    2.0703   42.4700   51.0048 H   0  0  0  0  0  0  0  0  0  0  0  0
    4.8001   41.8513   51.9921 H   0  0  0  0  0  0  0  0  0  0  0  0
    4.5113   43.9073   49.7681 H   0  0  0  0  0  0  0  0  0  0  0  0
    5.1729   44.1914   51.4336 H   0  0  0  0  0  0  0  0  0  0  0  0
    6.7463   43.6707   49.3232 H   0  0  0  0  0  0  0  0  0  0  0  0
    7.1063   43.1054   51.0249 H   0  0  0  0  0  0  0  0  0  0  0  0
    7.2951   41.4710   48.9323 H   0  0  0  0  0  0  0  0  0  0  0  0
    6.7012   40.9317   50.5572 H   0  0  0  0  0  0  0  0  0  0  0  0
    4.9622   41.7636   48.1982 H   0  0  0  0  0  0  0  0  0  0  0  0
    5.2826   40.0704   48.7715 H   0  0  0  0  0  0  0  0  0  0  0  0
    3.1062   41.4839   49.4976 H   0  0  0  0  0  0  0  0  0  0  0  0
    3.9420   40.2510   50.5617 H   0  0  0  0  0  0  0  0  0  0  0  0
    6.3005   46.0020   51.0165 H   0  0  0  0  0  0  0  0  0  0  0  0
    8.7144   45.9178   50.3575 H   0  0  0  0  0  0  0  0  0  0  0  0
    9.8502   47.3742   54.2639 H   0  0  0  0  0  0  0  0  0  0  0  0
    7.4400   47.4728   54.9388 H   0  0  0  0  0  0  0  0  0  0  0  0
  1  2  3  0
  2  3  1  0
  3  4  1  0
  4  5  2  0
  5  6  1  0
  6  7  2  0
  7  8  1  0
  8  9  2  0
  9 10  1  0
 10 11  2  0
 11 12  1  0
 12 13  2  0
 13 14  1  0
 14 15  1  0
 15 16  1  0
 16 17  1  0
 17 18  1  0
 18 19  1  0
 19 20  1  0
 20 21  1  0
  3 22  1  0
 22 23  2  0
 22 24  2  0
 22 25  1  0
 25 26  2  0
 26 27  1  0
 27 28  2  0
 28 29  1  0
 28 30  1  0
 30 31  2  0
 13  4  1  0
 21 16  1  0
 31 25  1  0
 11  6  1  0
  3 32  1  0
  7 33  1  0
  8 34  1  0
  9 35  1  0
 10 36  1  0
 14 37  1  0
 15 38  1  0
 15 39  1  0
 16 40  1  0
 17 41  1  0
 17 42  1  0
 18 43  1  0
 18 44  1  0
 19 45  1  0
 19 46  1  0
 20 47  1  0
 20 48  1  0
 21 49  1  0
 21 50  1  0
 26 51  1  0
 27 52  1  0
 30 53  1  0
 31 54  1  0
M  END
>  <meeko>  (103) 
{"is_sidechain": false}

>  <CID>  (103) 
Z107740192

>  <pose_index>  (103) 
1

>  <docking_score>  (103) 
-9.921

>  <rmsd_to_best_selected>  (103) 
0.0

>  <MWT>  (103) 
438.52799999999974

>  <TPSA>  (103) 
95.74000000000001

>  <logP>  (103) 
4.799680000000004

>  <HBD>  (103) 
1

>  <HBA>  (103) 
6

>  <SMILES>  (103) 
[H]c1c([H])c(S(=O)(=O)C([H])(C#N)c2nc3c([H])c([H])c([H])c([H])c3nc2N([H])C([H])([H])C2([H])C([H])([H])C([H])([H])C([H])([H])C([H])([H])C2([H])[H])c([H])c([H])c1F

$$$$
Z107740192_pose2
     RDKit          3D

 54 57  0  0  0  0  0  0  0  0999 V2000
    5.9777   44.6251   56.1845 N   0  0  0  0  0  0  0  0  0  0  0  0
    5.3667   44.7787   55.2086 C   0  0  0  0  0  0  0  0  0  0  0  0
    4.5627   45.0658   54.0246 C   0  0  0  0  0  0  0  0  0  0  0  0
    3.0737   45.0417   54.2394 C   0  0  0  0  0  0  0  0  0  0  0  0
    2.5958   45.4386   55.4515 N   0  0  0  0  0  0  0  0  0  0  0  0
    1.2695   45.3592   55.6533 C   0  0  0  0  0  0  0  0  0  0  0  0
    0.7298   45.7599   56.8713 C   0  0  0  0  0  0  0  0  0  0  0  0
   -0.6417   45.6847   57.1158 C   0  0  0  0  0  0  0  0  0  0  0  0
   -1.4871   45.1975   56.1271 C   0  0  0  0  0  0  0  0  0  0  0  0
   -0.9536   44.7927   54.9035 C   0  0  0  0  0  0  0  0  0  0  0  0
    0.4126   44.8655   54.6482 C   0  0  0  0  0  0  0  0  0  0  0  0
    0.8907   44.4677   53.4552 N   0  0  0  0  0  0  0  0  0  0  0  0
    2.2174   44.5649   53.2314 C   0  0  0  0  0  0  0  0  0  0  0  0
    2.7450   44.1740   51.9820 N   0  0  0  0  0  0  0  0  0  0  0  0
    3.1083   42.7538   51.9008 C   0  0  0  0  0  0  0  0  0  0  0  0
    4.0403   42.5157   50.6969 C   0  0  0  0  0  0  0  0  0  0  0  0
    4.6217   41.0965   50.6647 C   0  0  0  0  0  0  0  0  0  0  0  0
    5.4593   40.8492   49.4069 C   0  0  0  0  0  0  0  0  0  0  0  0
    6.1012   42.1151   48.8371 C   0  0  0  0  0  0  0  0  0  0  0  0
    6.4268   43.1191   49.9322 C   0  0  0  0  0  0  0  0  0  0  0  0
    5.1778   43.5582   50.7012 C   0  0  0  0  0  0  0  0  0  0  0  0
    4.9964   46.7111   53.4940 S   0  0  0  0  0  0  0  0  0  0  0  0
    4.9083   47.6574   54.5908 O   0  0  0  0  0  0  0  0  0  0  0  0
    4.3087   47.0049   52.2434 O   0  0  0  0  0  0  0  0  0  0  0  0
    6.7250   46.5887   53.0505 C   0  0  0  0  0  0  0  0  0  0  0  0
    7.7084   46.9478   53.9795 C   0  0  0  0  0  0  0  0  0  0  0  0
    9.0534   46.8622   53.6171 C   0  0  0  0  0  0  0  0  0  0  0  0
    9.3969   46.4358   52.3370 C   0  0  0  0  0  0  0  0  0  0  0  0
   10.6885   46.3583   51.9921 F   0  0  0  0  0  0  0  0  0  0  0  0
    8.4193   46.0964   51.4058 C   0  0  0  0  0  0  0  0  0  0  0  0
    7.0708   46.1755   51.7566 C   0  0  0  0  0  0  0  0  0  0  0  0
    4.7805   44.2738   53.2931 H   0  0  0  0  0  0  0  0  0  0  0  0
    1.3974   46.1436   57.6569 H   0  0  0  0  0  0  0  0  0  0  0  0
   -1.0505   46.0088   58.0842 H   0  0  0  0  0  0  0  0  0  0  0  0
   -2.5701   45.1313   56.3080 H   0  0  0  0  0  0  0  0  0  0  0  0
   -1.6271   44.4077   54.1236 H   0  0  0  0  0  0  0  0  0  0  0  0
    2.0295   44.3836   51.2725 H   0  0  0  0  0  0  0  0  0  0  0  0
    3.6248   42.4565   52.8255 H   0  0  0  0  0  0  0  0  0  0  0  0
    2.1948   42.1542   51.7742 H   0  0  0  0  0  0  0  0  0  0  0  0
    3.4311   42.6288   49.7879 H   0  0  0  0  0  0  0  0  0  0  0  0
    5.2590   40.9535   51.5498 H   0  0  0  0  0  0  0  0  0  0  0  0
    3.7826   40.3852   50.6600 H   0  0  0  0  0  0  0  0  0  0  0  0
    6.2591   40.1365   49.6568 H   0  0  0  0  0  0  0  0  0  0  0  0
    4.7764   40.4605   48.6371 H   0  0  0  0  0  0  0  0  0  0  0  0
    7.0305   41.8409   48.3164 H   0  0  0  0  0  0  0  0  0  0  0  0
    5.3857   42.5818   48.1441 H   0  0  0  0  0  0  0  0  0  0  0  0
    7.1337   42.6577   50.6375 H   0  0  0  0  0  0  0  0  0  0  0  0
    6.8621   44.0101   49.4562 H   0  0  0  0  0  0  0  0  0  0  0  0
    5.4648   43.7528   51.7451 H   0  0  0  0  0  0  0  0  0  0  0  0
    4.7905   44.4545   50.1947 H   0  0  0  0  0  0  0  0  0  0  0  0
    7.4242   47.2938   54.9842 H   0  0  0  0  0  0  0  0  0  0  0  0
    9.8385   47.1304   54.3394 H   0  0  0  0  0  0  0  0  0  0  0  0
    8.7087   45.7669   50.3969 H   0  0  0  0  0  0  0  0  0  0  0  0
    6.2893   45.9168   51.0269 H   0  0  0  0  0  0  0  0  0  0  0  0
  1  2  3  0
  2  3  1  0
  3  4  1  0
  4  5  2  0
  5  6  1  0
  6  7  2  0
  7  8  1  0
  8  9  2  0
  9 10  1  0
 10 11  2  0
 11 12  1  0
 12 13  2  0
 13 14  1  0
 14 15  1  0
 15 16  1  0
 16 17  1  0
 17 18  1  0
 18 19  1  0
 19 20  1  0
 20 21  1  0
  3 22  1  0
 22 23  2  0
 22 24  2  0
 22 25  1  0
 25 26  2  0
 26 27  1  0
 27 28  2  0
 28 29  1  0
 28 30  1  0
 30 31  2  0
 13  4  1  0
 21 16  1  0
 31 25  1  0
 11  6  1  0
  3 32  1  0
  7 33  1  0
  8 34  1  0
  9 35  1  0
 10 36  1  0
 14 37  1  0
 15 38  1  0
 15 39  1  0
 16 40  1  0
 17 41  1  0
 17 42  1  0
 18 43  1  0
 18 44  1  0
 19 45  1  0
 19 46  1  0
 20 47  1  0
 20 48  1  0
 21 49  1  0
 21 50  1  0
 26 51  1  0
 27 52  1  0
 30 53  1  0
 31 54  1  0
M  END
>  <meeko>  (104) 
{"is_sidechain": false}

>  <CID>  (104) 
Z107740192

>  <pose_index>  (104) 
2

>  <docking_score>  (104) 
-9.665

>  <rmsd_to_best_selected>  (104) 
0.8038069928084595

>  <MWT>  (104) 
438.52799999999974

>  <TPSA>  (104) 
95.74000000000001

>  <logP>  (104) 
4.799680000000004

>  <HBD>  (104) 
1

>  <HBA>  (104) 
6

>  <SMILES>  (104) 
[H]c1c([H])c(S(=O)(=O)C([H])(C#N)c2nc3c([H])c([H])c([H])c([H])c3nc2N([H])C([H])([H])C2([H])C([H])([H])C([H])([H])C([H])([H])C([H])([H])C2([H])[H])c([H])c([H])c1F

$$$$
Z107740192_pose3
     RDKit          3D

 54 57  0  0  0  0  0  0  0  0999 V2000
    5.7167   43.1907   55.7854 N   0  0  0  0  0  0  0  0  0  0  0  0
    5.1223   43.8708   55.0536 C   0  0  0  0  0  0  0  0  0  0  0  0
    4.4673   44.7332   54.0747 C   0  0  0  0  0  0  0  0  0  0  0  0
    2.9837   44.9029   54.2617 C   0  0  0  0  0  0  0  0  0  0  0  0
    2.5224   45.1552   55.5174 N   0  0  0  0  0  0  0  0  0  0  0  0
    1.1910   45.2479   55.6840 C   0  0  0  0  0  0  0  0  0  0  0  0
    0.6682   45.5124   56.9448 C   0  0  0  0  0  0  0  0  0  0  0  0
   -0.7072   45.6082   57.1540 C   0  0  0  0  0  0  0  0  0  0  0  0
   -1.5756   45.4349   56.0823 C   0  0  0  0  0  0  0  0  0  0  0  0
   -1.0595   45.1686   54.8148 C   0  0  0  0  0  0  0  0  0  0  0  0
    0.3119   45.0729   54.5957 C   0  0  0  0  0  0  0  0  0  0  0  0
    0.7733   44.8170   53.3571 N   0  0  0  0  0  0  0  0  0  0  0  0
    2.1079   44.7437   53.1730 C   0  0  0  0  0  0  0  0  0  0  0  0
    2.6209   44.4971   51.8826 N   0  0  0  0  0  0  0  0  0  0  0  0
    3.1108   43.1276   51.6826 C   0  0  0  0  0  0  0  0  0  0  0  0
    4.4063   43.1468   50.8476 C   0  0  0  0  0  0  0  0  0  0  0  0
    4.1806   42.7309   49.3877 C   0  0  0  0  0  0  0  0  0  0  0  0
    5.4581   42.8575   48.5530 C   0  0  0  0  0  0  0  0  0  0  0  0
    6.7424   42.6905   49.3641 C   0  0  0  0  0  0  0  0  0  0  0  0
    6.5446   41.7420   50.5375 C   0  0  0  0  0  0  0  0  0  0  0  0
    5.4655   42.2380   51.5033 C   0  0  0  0  0  0  0  0  0  0  0  0
    5.2101   46.3455   54.2313 S   0  0  0  0  0  0  0  0  0  0  0  0
    5.5312   46.6437   55.6152 O   0  0  0  0  0  0  0  0  0  0  0  0
    4.4332   47.3056   53.4576 O   0  0  0  0  0  0  0  0  0  0  0  0
    6.7634   46.1999   53.3561 C   0  0  0  0  0  0  0  0  0  0  0  0
    7.6472   47.2856   53.3236 C   0  0  0  0  0  0  0  0  0  0  0  0
    8.8489   47.1661   52.6244 C   0  0  0  0  0  0  0  0  0  0  0  0
    9.1455   45.9794   51.9617 C   0  0  0  0  0  0  0  0  0  0  0  0
   10.2992   45.8698   51.2893 F   0  0  0  0  0  0  0  0  0  0  0  0
    8.2598   44.9054   51.9769 C   0  0  0  0  0  0  0  0  0  0  0  0
    7.0551   45.0121   52.6742 C   0  0  0  0  0  0  0  0  0  0  0  0
    4.6014   44.2581   53.0918 H   0  0  0  0  0  0  0  0  0  0  0  0
    1.3533   45.6490   57.7945 H   0  0  0  0  0  0  0  0  0  0  0  0
   -1.1018   45.8191   58.1589 H   0  0  0  0  0  0  0  0  0  0  0  0
   -2.6628   45.5074   56.2334 H   0  0  0  0  0  0  0  0  0  0  0  0
   -1.7506   45.0312   53.9701 H   0  0  0  0  0  0  0  0  0  0  0  0
    1.8634   44.6884   51.2138 H   0  0  0  0  0  0  0  0  0  0  0  0
    3.3148   42.6674   52.6607 H   0  0  0  0  0  0  0  0  0  0  0  0
    2.3458   42.5454   51.1481 H   0  0  0  0  0  0  0  0  0  0  0  0
    4.7645   44.1866   50.8290 H   0  0  0  0  0  0  0  0  0  0  0  0
    3.8430   41.6843   49.3643 H   0  0  0  0  0  0  0  0  0  0  0  0
    3.4236   43.4020   48.9556 H   0  0  0  0  0  0  0  0  0  0  0  0
    5.4391   42.0850   47.7701 H   0  0  0  0  0  0  0  0  0  0  0  0
    5.4708   43.8762   48.1381 H   0  0  0  0  0  0  0  0  0  0  0  0
    7.5288   42.2883   48.7086 H   0  0  0  0  0  0  0  0  0  0  0  0
    7.0283   43.6752   49.7623 H   0  0  0  0  0  0  0  0  0  0  0  0
    6.2481   40.7559   50.1504 H   0  0  0  0  0  0  0  0  0  0  0  0
    7.4938   41.6847   51.0905 H   0  0  0  0  0  0  0  0  0  0  0  0
    4.9539   41.3624   51.9295 H   0  0  0  0  0  0  0  0  0  0  0  0
    5.9758   42.8437   52.2666 H   0  0  0  0  0  0  0  0  0  0  0  0
    7.3970   48.2222   53.8434 H   0  0  0  0  0  0  0  0  0  0  0  0
    9.5584   48.0063   52.5974 H   0  0  0  0  0  0  0  0  0  0  0  0
    8.5082   43.9769   51.4420 H   0  0  0  0  0  0  0  0  0  0  0  0
    6.3436   44.1733   52.6877 H   0  0  0  0  0  0  0  0  0  0  0  0
  1  2  3  0
  2  3  1  0
  3  4  1  0
  4  5  2  0
  5  6  1  0
  6  7  2  0
  7  8  1  0
  8  9  2  0
  9 10  1  0
 10 11  2  0
 11 12  1  0
 12 13  2  0
 13 14  1  0
 14 15  1  0
 15 16  1  0
 16 17  1  0
 17 18  1  0
 18 19  1  0
 19 20  1  0
 20 21  1  0
  3 22  1  0
 22 23  2  0
 22 24  2  0
 22 25  1  0
 25 26  2  0
 26 27  1  0
 27 28  2  0
 28 29  1  0
 28 30  1  0
 30 31  2  0
 13  4  1  0
 21 16  1  0
 31 25  1  0
 11  6  1  0
  3 32  1  0
  7 33  1  0
  8 34  1  0
  9 35  1  0
 10 36  1  0
 14 37  1  0
 15 38  1  0
 15 39  1  0
 16 40  1  0
 17 41  1  0
 17 42  1  0
 18 43  1  0
 18 44  1  0
 19 45  1  0
 19 46  1  0
 20 47  1  0
 20 48  1  0
 21 49  1  0
 21 50  1  0
 26 51  1  0
 27 52  1  0
 30 53  1  0
 31 54  1  0
M  END
>  <meeko>  (105) 
{"is_sidechain": false}

>  <CID>  (105) 
Z107740192

>  <pose_index>  (105) 
3

>  <docking_score>  (105) 
-9.202

>  <rmsd_to_best_selected>  (105) 
1.362514933281094

>  <MWT>  (105) 
438.52799999999974

>  <TPSA>  (105) 
95.74000000000001

>  <logP>  (105) 
4.799680000000004

>  <HBD>  (105) 
1

>  <HBA>  (105) 
6

>  <SMILES>  (105) 
[H]c1c([H])c(S(=O)(=O)C([H])(C#N)c2nc3c([H])c([H])c([H])c([H])c3nc2N([H])C([H])([H])C2([H])C([H])([H])C([H])([H])C([H])([H])C([H])([H])C2([H])[H])c([H])c([H])c1F

$$$$
Z107740192_pose4
     RDKit          3D

 54 57  0  0  0  0  0  0  0  0999 V2000
    5.7726   45.5374   57.1059 N   0  0  0  0  0  0  0  0  0  0  0  0
    5.3640   45.3312   56.0373 C   0  0  0  0  0  0  0  0  0  0  0  0
    4.7511   45.0862   54.7363 C   0  0  0  0  0  0  0  0  0  0  0  0
    3.2636   44.8582   54.7620 C   0  0  0  0  0  0  0  0  0  0  0  0
    2.4960   45.7203   55.4851 N   0  0  0  0  0  0  0  0  0  0  0  0
    1.1761   45.4753   55.5483 C   0  0  0  0  0  0  0  0  0  0  0  0
    0.3478   46.3299   56.2672 C   0  0  0  0  0  0  0  0  0  0  0  0
   -1.0246   46.1007   56.3594 C   0  0  0  0  0  0  0  0  0  0  0  0
   -1.5785   44.9972   55.7222 C   0  0  0  0  0  0  0  0  0  0  0  0
   -0.7542   44.1349   54.9989 C   0  0  0  0  0  0  0  0  0  0  0  0
    0.6156   44.3550   54.9002 C   0  0  0  0  0  0  0  0  0  0  0  0
    1.3798   43.5023   54.1926 N   0  0  0  0  0  0  0  0  0  0  0  0
    2.7029   43.7511   54.1018 C   0  0  0  0  0  0  0  0  0  0  0  0
    3.5249   42.8850   53.3506 N   0  0  0  0  0  0  0  0  0  0  0  0
    3.1683   42.8006   51.9288 C   0  0  0  0  0  0  0  0  0  0  0  0
    4.4428   42.6921   51.0700 C   0  0  0  0  0  0  0  0  0  0  0  0
    4.6277   43.8856   50.1235 C   0  0  0  0  0  0  0  0  0  0  0  0
    5.9510   43.8084   49.3571 C   0  0  0  0  0  0  0  0  0  0  0  0
    6.4540   42.3818   49.1399 C   0  0  0  0  0  0  0  0  0  0  0  0
    5.3030   41.3953   49.0150 C   0  0  0  0  0  0  0  0  0  0  0  0
    4.4242   41.3740   50.2690 C   0  0  0  0  0  0  0  0  0  0  0  0
    5.0489   46.5368   53.7449 S   0  0  0  0  0  0  0  0  0  0  0  0
    5.0664   47.7366   54.5612 O   0  0  0  0  0  0  0  0  0  0  0  0
    4.1956   46.4905   52.5635 O   0  0  0  0  0  0  0  0  0  0  0  0
    6.7099   46.3069   53.1202 C   0  0  0  0  0  0  0  0  0  0  0  0
    7.5759   47.4035   53.0288 C   0  0  0  0  0  0  0  0  0  0  0  0
    8.8632   47.2154   52.5256 C   0  0  0  0  0  0  0  0  0  0  0  0
    9.2638   45.9489   52.1109 C   0  0  0  0  0  0  0  0  0  0  0  0
   10.4994   45.7733   51.6251 F   0  0  0  0  0  0  0  0  0  0  0  0
    8.3970   44.8612   52.1824 C   0  0  0  0  0  0  0  0  0  0  0  0
    7.1077   45.0363   52.6855 C   0  0  0  0  0  0  0  0  0  0  0  0
    5.1980   44.1610   54.3434 H   0  0  0  0  0  0  0  0  0  0  0  0
    0.7836   47.2039   56.7732 H   0  0  0  0  0  0  0  0  0  0  0  0
   -1.6639   46.7884   56.9323 H   0  0  0  0  0  0  0  0  0  0  0  0
   -2.6595   44.8048   55.7876 H   0  0  0  0  0  0  0  0  0  0  0  0
   -1.1969   43.2625   54.4961 H   0  0  0  0  0  0  0  0  0  0  0  0
    4.4899   43.2306   53.4388 H   0  0  0  0  0  0  0  0  0  0  0  0
    2.5409   41.9124   51.7630 H   0  0  0  0  0  0  0  0  0  0  0  0
    2.6160   43.7073   51.6412 H   0  0  0  0  0  0  0  0  0  0  0  0
    5.2997   42.6995   51.7597 H   0  0  0  0  0  0  0  0  0  0  0  0
    3.7986   43.8978   49.4007 H   0  0  0  0  0  0  0  0  0  0  0  0
    4.6389   44.8029   50.7305 H   0  0  0  0  0  0  0  0  0  0  0  0
    5.8105   44.2804   48.3735 H   0  0  0  0  0  0  0  0  0  0  0  0
    6.7061   44.3255   49.9674 H   0  0  0  0  0  0  0  0  0  0  0  0
    7.0524   42.3508   48.2174 H   0  0  0  0  0  0  0  0  0  0  0  0
    7.0605   42.0944   50.0114 H   0  0  0  0  0  0  0  0  0  0  0  0
    4.6832   41.6808   48.1522 H   0  0  0  0  0  0  0  0  0  0  0  0
    5.7308   40.3904   48.8839 H   0  0  0  0  0  0  0  0  0  0  0  0
    3.3877   41.1706   49.9617 H   0  0  0  0  0  0  0  0  0  0  0  0
    4.8307   40.5941   50.9296 H   0  0  0  0  0  0  0  0  0  0  0  0
    7.2447   48.4021   53.3502 H   0  0  0  0  0  0  0  0  0  0  0  0
    9.5589   48.0648   52.4569 H   0  0  0  0  0  0  0  0  0  0  0  0
    8.7276   43.8683   51.8435 H   0  0  0  0  0  0  0  0  0  0  0  0
    6.4116   44.1863   52.7402 H   0  0  0  0  0  0  0  0  0  0  0  0
  1  2  3  0
  2  3  1  0
  3  4  1  0
  4  5  2  0
  5  6  1  0
  6  7  2  0
  7  8  1  0
  8  9  2  0
  9 10  1  0
 10 11  2  0
 11 12  1  0
 12 13  2  0
 13 14  1  0
 14 15  1  0
 15 16  1  0
 16 17  1  0
 17 18  1  0
 18 19  1  0
 19 20  1  0
 20 21  1  0
  3 22  1  0
 22 23  2  0
 22 24  2  0
 22 25  1  0
 25 26  2  0
 26 27  1  0
 27 28  2  0
 28 29  1  0
 28 30  1  0
 30 31  2  0
 13  4  1  0
 21 16  1  0
 31 25  1  0
 11  6  1  0
  3 32  1  0
  7 33  1  0
  8 34  1  0
  9 35  1  0
 10 36  1  0
 14 37  1  0
 15 38  1  0
 15 39  1  0
 16 40  1  0
 17 41  1  0
 17 42  1  0
 18 43  1  0
 18 44  1  0
 19 45  1  0
 19 46  1  0
 20 47  1  0
 20 48  1  0
 21 49  1  0
 21 50  1  0
 26 51  1  0
 27 52  1  0
 30 53  1  0
 31 54  1  0
M  END
>  <meeko>  (106) 
{"is_sidechain": false}

>  <CID>  (106) 
Z107740192

>  <pose_index>  (106) 
4

>  <docking_score>  (106) 
-8.749

>  <rmsd_to_best_selected>  (106) 
1.2266749487066417

>  <MWT>  (106) 
438.52799999999974

>  <TPSA>  (106) 
95.74000000000001

>  <logP>  (106) 
4.799680000000004

>  <HBD>  (106) 
1

>  <HBA>  (106) 
6

>  <SMILES>  (106) 
[H]c1c([H])c(S(=O)(=O)C([H])(C#N)c2nc3c([H])c([H])c([H])c([H])c3nc2N([H])C([H])([H])C2([H])C([H])([H])C([H])([H])C([H])([H])C([H])([H])C2([H])[H])c([H])c([H])c1F

$$$$
Z107740192_pose5
     RDKit          3D

 54 57  0  0  0  0  0  0  0  0999 V2000
    5.8080   46.3273   56.9679 N   0  0  0  0  0  0  0  0  0  0  0  0
    5.3576   45.9483   55.9659 C   0  0  0  0  0  0  0  0  0  0  0  0
    4.8914   45.4450   54.6774 C   0  0  0  0  0  0  0  0  0  0  0  0
    3.4446   45.0321   54.6351 C   0  0  0  0  0  0  0  0  0  0  0  0
    2.5106   45.9338   55.0473 N   0  0  0  0  0  0  0  0  0  0  0  0
    1.2262   45.5375   55.0603 C   0  0  0  0  0  0  0  0  0  0  0  0
    0.2328   46.4224   55.4646 C   0  0  0  0  0  0  0  0  0  0  0  0
   -1.1087   46.0412   55.4961 C   0  0  0  0  0  0  0  0  0  0  0  0
   -1.4620   44.7519   55.1185 C   0  0  0  0  0  0  0  0  0  0  0  0
   -0.4710   43.8579   54.7111 C   0  0  0  0  0  0  0  0  0  0  0  0
    0.8693   44.2286   54.6748 C   0  0  0  0  0  0  0  0  0  0  0  0
    1.7972   43.3393   54.2746 N   0  0  0  0  0  0  0  0  0  0  0  0
    3.0868   43.7331   54.2352 C   0  0  0  0  0  0  0  0  0  0  0  0
    4.0790   42.8290   53.8013 N   0  0  0  0  0  0  0  0  0  0  0  0
    3.6327   41.9047   52.7518 C   0  0  0  0  0  0  0  0  0  0  0  0
    4.5415   42.0324   51.5142 C   0  0  0  0  0  0  0  0  0  0  0  0
    4.9430   43.4837   51.2173 C   0  0  0  0  0  0  0  0  0  0  0  0
    5.9273   43.5769   50.0480 C   0  0  0  0  0  0  0  0  0  0  0  0
    5.7918   42.4391   49.0367 C   0  0  0  0  0  0  0  0  0  0  0  0
    4.3582   41.9395   48.9451 C   0  0  0  0  0  0  0  0  0  0  0  0
    3.8462   41.4092   50.2869 C   0  0  0  0  0  0  0  0  0  0  0  0
    5.1021   46.7677   53.5023 S   0  0  0  0  0  0  0  0  0  0  0  0
    5.0307   48.0634   54.1502 O   0  0  0  0  0  0  0  0  0  0  0  0
    4.2650   46.5065   52.3367 O   0  0  0  0  0  0  0  0  0  0  0  0
    6.7805   46.5699   52.9158 C   0  0  0  0  0  0  0  0  0  0  0  0
    7.0277   46.4528   51.5416 C   0  0  0  0  0  0  0  0  0  0  0  0
    8.3395   46.2836   51.0971 C   0  0  0  0  0  0  0  0  0  0  0  0
    9.3784   46.2206   52.0214 C   0  0  0  0  0  0  0  0  0  0  0  0
   10.6356   46.0542   51.5898 F   0  0  0  0  0  0  0  0  0  0  0  0
    9.1324   46.3173   53.3887 C   0  0  0  0  0  0  0  0  0  0  0  0
    7.8250   46.4882   53.8455 C   0  0  0  0  0  0  0  0  0  0  0  0
    5.4753   44.5386   54.4600 H   0  0  0  0  0  0  0  0  0  0  0  0
    0.5103   47.4434   55.7657 H   0  0  0  0  0  0  0  0  0  0  0  0
   -1.8807   46.7558   55.8175 H   0  0  0  0  0  0  0  0  0  0  0  0
   -2.5160   44.4377   55.1405 H   0  0  0  0  0  0  0  0  0  0  0  0
   -0.7557   42.8382   54.4122 H   0  0  0  0  0  0  0  0  0  0  0  0
    4.8670   43.3892   53.4487 H   0  0  0  0  0  0  0  0  0  0  0  0
    3.6777   40.8734   53.1316 H   0  0  0  0  0  0  0  0  0  0  0  0
    2.5996   42.1535   52.4676 H   0  0  0  0  0  0  0  0  0  0  0  0
    5.4700   41.4858   51.7359 H   0  0  0  0  0  0  0  0  0  0  0  0
    4.0391   44.0586   50.9677 H   0  0  0  0  0  0  0  0  0  0  0  0
    5.4375   43.8900   52.1119 H   0  0  0  0  0  0  0  0  0  0  0  0
    5.7550   44.5288   49.5245 H   0  0  0  0  0  0  0  0  0  0  0  0
    6.9391   43.5086   50.4742 H   0  0  0  0  0  0  0  0  0  0  0  0
    6.1076   42.8014   48.0473 H   0  0  0  0  0  0  0  0  0  0  0  0
    6.4264   41.6048   49.3704 H   0  0  0  0  0  0  0  0  0  0  0  0
    3.7131   42.7701   48.6225 H   0  0  0  0  0  0  0  0  0  0  0  0
    4.3338   41.1110   48.2219 H   0  0  0  0  0  0  0  0  0  0  0  0
    2.7690   41.6219   50.3545 H   0  0  0  0  0  0  0  0  0  0  0  0
    4.0674   40.3319   50.3086 H   0  0  0  0  0  0  0  0  0  0  0  0
    6.1972   46.4940   50.8214 H   0  0  0  0  0  0  0  0  0  0  0  0
    8.5518   46.2002   50.0209 H   0  0  0  0  0  0  0  0  0  0  0  0
    9.9649   46.2593   54.1053 H   0  0  0  0  0  0  0  0  0  0  0  0
    7.6170   46.5580   54.9234 H   0  0  0  0  0  0  0  0  0  0  0  0
  1  2  3  0
  2  3  1  0
  3  4  1  0
  4  5  2  0
  5  6  1  0
  6  7  2  0
  7  8  1  0
  8  9  2  0
  9 10  1  0
 10 11  2  0
 11 12  1  0
 12 13  2  0
 13 14  1  0
 14 15  1  0
 15 16  1  0
 16 17  1  0
 17 18  1  0
 18 19  1  0
 19 20  1  0
 20 21  1  0
  3 22  1  0
 22 23  2  0
 22 24  2  0
 22 25  1  0
 25 26  2  0
 26 27  1  0
 27 28  2  0
 28 29  1  0
 28 30  1  0
 30 31  2  0
 13  4  1  0
 21 16  1  0
 31 25  1  0
 11  6  1  0
  3 32  1  0
  7 33  1  0
  8 34  1  0
  9 35  1  0
 10 36  1  0
 14 37  1  0
 15 38  1  0
 15 39  1  0
 16 40  1  0
 17 41  1  0
 17 42  1  0
 18 43  1  0
 18 44  1  0
 19 45  1  0
 19 46  1  0
 20 47  1  0
 20 48  1  0
 21 49  1  0
 21 50  1  0
 26 51  1  0
 27 52  1  0
 30 53  1  0
 31 54  1  0
M  END
>  <meeko>  (107) 
{"is_sidechain": false}

>  <CID>  (107) 
Z107740192

>  <pose_index>  (107) 
5

>  <docking_score>  (107) 
-8.649

>  <rmsd_to_best_selected>  (107) 
1.3132972046596199

>  <MWT>  (107) 
438.52799999999974

>  <TPSA>  (107) 
95.74000000000001

>  <logP>  (107) 
4.799680000000004

>  <HBD>  (107) 
1

>  <HBA>  (107) 
6

>  <SMILES>  (107) 
[H]c1c([H])c(S(=O)(=O)C([H])(C#N)c2nc3c([H])c([H])c([H])c([H])c3nc2N([H])C([H])([H])C2([H])C([H])([H])C([H])([H])C([H])([H])C([H])([H])C2([H])[H])c([H])c([H])c1F

$$$$
Z1127203562_pose1
     RDKit          3D

 51 53  0  0  0  0  0  0  0  0999 V2000
    1.6900   45.6130   56.0920 C   0  0  0  0  0  0  0  0  0  0  0  0
    2.2390   44.6410   55.0450 C   0  0  0  0  0  0  0  0  0  0  0  0
    1.1110   43.9940   54.2370 C   0  0  0  0  0  0  0  0  0  0  0  0
    3.2730   45.2420   54.1760 N   0  0  0  0  0  0  0  0  0  0  0  0
    2.9460   45.3130   52.7440 C   0  0  0  0  0  0  0  0  0  0  0  0
    3.9750   44.5510   51.9210 C   0  0  0  0  0  0  0  0  0  0  0  0
    5.0180   45.1500   51.4410 N   0  0  0  0  0  0  0  0  0  0  0  0
    5.9280   44.3820   50.6940 C   0  0  0  0  0  0  0  0  0  0  0  0
    7.0570   45.0040   50.1590 C   0  0  0  0  0  0  0  0  0  0  0  0
    7.9850   44.2750   49.4090 C   0  0  0  0  0  0  0  0  0  0  0  0
    7.7910   42.9110   49.1860 C   0  0  0  0  0  0  0  0  0  0  0  0
    6.6690   42.2730   49.7130 C   0  0  0  0  0  0  0  0  0  0  0  0
    5.7480   43.0130   50.4630 C   0  0  0  0  0  0  0  0  0  0  0  0
    4.5510   42.3780   51.0380 C   0  0  0  0  0  0  0  0  0  0  0  0
    4.3130   41.1840   50.9000 O   0  0  0  0  0  0  0  0  0  0  0  0
    3.7280   43.2140   51.7460 N   0  0  0  0  0  0  0  0  0  0  0  0
    4.5590   45.4290   54.6730 C   0  0  0  0  0  0  0  0  0  0  0  0
    5.1530   44.6100   55.3650 O   0  0  0  0  0  0  0  0  0  0  0  0
    5.1520   46.6100   54.2820 N   0  0  0  0  0  0  0  0  0  0  0  0
    6.5270   46.8670   54.6850 C   0  0  0  0  0  0  0  0  0  0  0  0
    7.4970   46.6650   53.5270 C   0  0  0  0  0  0  0  0  0  0  0  0
    8.9670   46.8020   53.9220 C   0  0  0  0  0  0  0  0  0  0  0  0
    9.6540   47.0100   52.5830 C   0  0  0  0  0  0  0  0  0  0  0  0
    8.7130   47.9390   51.8250 C   0  0  0  0  0  0  0  0  0  0  0  0
    7.3210   47.7080   52.4160 C   0  0  0  0  0  0  0  0  0  0  0  0
    1.9074   45.2281   57.0993 H   0  0  0  0  0  0  0  0  0  0  0  0
    2.1660   46.5964   55.9646 H   0  0  0  0  0  0  0  0  0  0  0  0
    0.6020   45.7130   55.9646 H   0  0  0  0  0  0  0  0  0  0  0  0
    2.7502   43.8420   55.6020 H   0  0  0  0  0  0  0  0  0  0  0  0
    0.3661   43.5667   54.9244 H   0  0  0  0  0  0  0  0  0  0  0  0
    0.6314   44.7543   53.6030 H   0  0  0  0  0  0  0  0  0  0  0  0
    1.5251   43.1961   53.6030 H   0  0  0  0  0  0  0  0  0  0  0  0
    1.9520   44.8722   52.5779 H   0  0  0  0  0  0  0  0  0  0  0  0
    2.9518   46.3675   52.4308 H   0  0  0  0  0  0  0  0  0  0  0  0
    7.2185   46.0787   50.3291 H   0  0  0  0  0  0  0  0  0  0  0  0
    8.8706   44.7781   48.9935 H   0  0  0  0  0  0  0  0  0  0  0  0
    8.5224   42.3401   48.5952 H   0  0  0  0  0  0  0  0  0  0  0  0
    6.5092   41.1984   49.5409 H   0  0  0  0  0  0  0  0  0  0  0  0
    2.8710   42.8070   52.1030 H   0  0  0  0  0  0  0  0  0  0  0  0
    4.5410   47.3990   54.4370 H   0  0  0  0  0  0  0  0  0  0  0  0
    6.6068   47.9048   55.0409 H   0  0  0  0  0  0  0  0  0  0  0  0
    6.7905   46.1572   55.4830 H   0  0  0  0  0  0  0  0  0  0  0  0
    7.2586   45.6440   53.1942 H   0  0  0  0  0  0  0  0  0  0  0  0
    9.1208   47.6660   54.5853 H   0  0  0  0  0  0  0  0  0  0  0  0
    9.3517   45.9359   54.4804 H   0  0  0  0  0  0  0  0  0  0  0  0
   10.6402   47.4781   52.7183 H   0  0  0  0  0  0  0  0  0  0  0  0
    9.8360   46.0653   52.0497 H   0  0  0  0  0  0  0  0  0  0  0  0
    9.0175   48.9869   51.9638 H   0  0  0  0  0  0  0  0  0  0  0  0
    8.7298   47.7335   50.7445 H   0  0  0  0  0  0  0  0  0  0  0  0
    6.9228   48.6452   52.8321 H   0  0  0  0  0  0  0  0  0  0  0  0
    6.6118   47.3622   51.6495 H   0  0  0  0  0  0  0  0  0  0  0  0
  1  2  1  0
  2  3  1  0
  2  4  1  0
  4  5  1  0
  5  6  1  0
  6  7  2  0
  7  8  1  0
  8  9  2  0
  9 10  1  0
 10 11  2  0
 11 12  1  0
 12 13  2  0
 13 14  1  0
 14 15  2  0
 14 16  1  0
  4 17  1  0
 17 18  2  0
 17 19  1  0
 19 20  1  0
 20 21  1  0
 21 22  1  0
 22 23  1  0
 23 24  1  0
 24 25  1  0
 16  6  1  0
 25 21  1  0
 13  8  1  0
  1 26  1  0
  1 27  1  0
  1 28  1  0
  2 29  1  0
  3 30  1  0
  3 31  1  0
  3 32  1  0
  5 33  1  0
  5 34  1  0
  9 35  1  0
 10 36  1  0
 11 37  1  0
 12 38  1  0
 16 39  1  0
 19 40  1  0
 20 41  1  0
 20 42  1  0
 21 43  1  0
 22 44  1  0
 22 45  1  0
 23 46  1  0
 23 47  1  0
 24 48  1  0
 24 49  1  0
 25 50  1  0
 25 51  1  0
M  END
>  <meeko>  (108) 
{"is_sidechain": false}

>  <CID>  (108) 
Z1127203562

>  <pose_index>  (108) 
1

>  <docking_score>  (108) 
-9.076

>  <rmsd_to_best_selected>  (108) 
0.0

>  <MWT>  (108) 
342.44299999999964

>  <TPSA>  (108) 
78.09

>  <logP>  (108) 
3.0333000000000014

>  <HBD>  (108) 
2

>  <HBA>  (108) 
3

>  <SMILES>  (108) 
[H]c1c([H])c([H])c2c(=O)n([H])c(C([H])([H])N(C(=O)N([H])C([H])([H])C3([H])C([H])([H])C([H])([H])C([H])([H])C3([H])[H])C([H])(C([H])([H])[H])C([H])([H])[H])nc2c1[H]

$$$$
Z1127203562_pose3
     RDKit          3D

 51 53  0  0  0  0  0  0  0  0999 V2000
    1.6307   43.7565   54.2518 C   0  0  0  0  0  0  0  0  0  0  0  0
    2.1593   45.1860   54.3952 C   0  0  0  0  0  0  0  0  0  0  0  0
    1.7967   45.7826   55.7576 C   0  0  0  0  0  0  0  0  0  0  0  0
    3.6038   45.3057   54.1007 N   0  0  0  0  0  0  0  0  0  0  0  0
    4.3711   44.0508   54.1326 C   0  0  0  0  0  0  0  0  0  0  0  0
    4.8678   43.6917   52.7389 C   0  0  0  0  0  0  0  0  0  0  0  0
    5.6454   44.4935   52.0830 N   0  0  0  0  0  0  0  0  0  0  0  0
    6.0669   44.0932   50.8026 C   0  0  0  0  0  0  0  0  0  0  0  0
    6.8995   44.9420   50.0712 C   0  0  0  0  0  0  0  0  0  0  0  0
    7.3406   44.5812   48.7941 C   0  0  0  0  0  0  0  0  0  0  0  0
    6.9515   43.3622   48.2352 C   0  0  0  0  0  0  0  0  0  0  0  0
    6.1207   42.5028   48.9523 C   0  0  0  0  0  0  0  0  0  0  0  0
    5.6867   42.8746   50.2296 C   0  0  0  0  0  0  0  0  0  0  0  0
    4.8104   41.9949   51.0204 C   0  0  0  0  0  0  0  0  0  0  0  0
    4.4335   40.9038   50.6091 O   0  0  0  0  0  0  0  0  0  0  0  0
    4.4542   42.4787   52.2526 N   0  0  0  0  0  0  0  0  0  0  0  0
    4.1996   46.5630   54.1018 C   0  0  0  0  0  0  0  0  0  0  0  0
    3.6498   47.5830   53.7030 O   0  0  0  0  0  0  0  0  0  0  0  0
    5.4672   46.5898   54.6420 N   0  0  0  0  0  0  0  0  0  0  0  0
    6.1481   47.8705   54.7603 C   0  0  0  0  0  0  0  0  0  0  0  0
    7.4480   47.8891   53.9649 C   0  0  0  0  0  0  0  0  0  0  0  0
    7.2448   47.9357   52.4504 C   0  0  0  0  0  0  0  0  0  0  0  0
    8.5988   47.4976   51.9189 C   0  0  0  0  0  0  0  0  0  0  0  0
    9.0159   46.3694   52.8550 C   0  0  0  0  0  0  0  0  0  0  0  0
    8.2924   46.6267   54.1789 C   0  0  0  0  0  0  0  0  0  0  0  0
    0.5315   43.7662   54.2929 H   0  0  0  0  0  0  0  0  0  0  0  0
    1.9578   43.3396   53.2878 H   0  0  0  0  0  0  0  0  0  0  0  0
    2.0228   43.1366   55.0714 H   0  0  0  0  0  0  0  0  0  0  0  0
    1.6503   45.7836   53.6246 H   0  0  0  0  0  0  0  0  0  0  0  0
    1.3615   46.7829   55.6157 H   0  0  0  0  0  0  0  0  0  0  0  0
    1.0653   45.1324   56.2597 H   0  0  0  0  0  0  0  0  0  0  0  0
    2.7028   45.8614   56.3762 H   0  0  0  0  0  0  0  0  0  0  0  0
    5.2339   44.1714   54.8041 H   0  0  0  0  0  0  0  0  0  0  0  0
    3.7171   43.2440   54.4951 H   0  0  0  0  0  0  0  0  0  0  0  0
    7.2117   45.9041   50.5037 H   0  0  0  0  0  0  0  0  0  0  0  0
    7.9960   45.2596   48.2283 H   0  0  0  0  0  0  0  0  0  0  0  0
    7.3000   43.0806   47.2306 H   0  0  0  0  0  0  0  0  0  0  0  0
    5.8091   41.5414   48.5182 H   0  0  0  0  0  0  0  0  0  0  0  0
    3.8073   41.9122   52.7896 H   0  0  0  0  0  0  0  0  0  0  0  0
    6.0516   45.8660   54.2468 H   0  0  0  0  0  0  0  0  0  0  0  0
    5.4862   48.6632   54.3816 H   0  0  0  0  0  0  0  0  0  0  0  0
    6.3906   48.0351   55.8206 H   0  0  0  0  0  0  0  0  0  0  0  0
    7.9404   48.7996   54.3373 H   0  0  0  0  0  0  0  0  0  0  0  0
    6.4514   47.2420   52.1350 H   0  0  0  0  0  0  0  0  0  0  0  0
    6.9296   48.9231   52.0821 H   0  0  0  0  0  0  0  0  0  0  0  0
    8.5137   47.1353   50.8838 H   0  0  0  0  0  0  0  0  0  0  0  0
    9.3297   48.3193   51.8948 H   0  0  0  0  0  0  0  0  0  0  0  0
    8.7151   45.3968   52.4384 H   0  0  0  0  0  0  0  0  0  0  0  0
   10.1071   46.3435   52.9918 H   0  0  0  0  0  0  0  0  0  0  0  0
    7.6459   45.7737   54.4325 H   0  0  0  0  0  0  0  0  0  0  0  0
    9.0047   46.7557   55.0071 H   0  0  0  0  0  0  0  0  0  0  0  0
  1  2  1  0
  2  3  1  0
  2  4  1  0
  4  5  1  0
  5  6  1  0
  6  7  2  0
  7  8  1  0
  8  9  2  0
  9 10  1  0
 10 11  2  0
 11 12  1  0
 12 13  2  0
 13 14  1  0
 14 15  2  0
 14 16  1  0
  4 17  1  0
 17 18  2  0
 17 19  1  0
 19 20  1  0
 20 21  1  0
 21 22  1  0
 22 23  1  0
 23 24  1  0
 24 25  1  0
 16  6  1  0
 25 21  1  0
 13  8  1  0
  1 26  1  0
  1 27  1  0
  1 28  1  0
  2 29  1  0
  3 30  1  0
  3 31  1  0
  3 32  1  0
  5 33  1  0
  5 34  1  0
  9 35  1  0
 10 36  1  0
 11 37  1  0
 12 38  1  0
 16 39  1  0
 19 40  1  0
 20 41  1  0
 20 42  1  0
 21 43  1  0
 22 44  1  0
 22 45  1  0
 23 46  1  0
 23 47  1  0
 24 48  1  0
 24 49  1  0
 25 50  1  0
 25 51  1  0
M  END
>  <meeko>  (109) 
{"is_sidechain": false}

>  <CID>  (109) 
Z1127203562

>  <pose_index>  (109) 
3

>  <docking_score>  (109) 
-9.012

>  <rmsd_to_best_selected>  (109) 
1.516042509348046

>  <MWT>  (109) 
342.44299999999964

>  <TPSA>  (109) 
78.09

>  <logP>  (109) 
3.0333000000000014

>  <HBD>  (109) 
2

>  <HBA>  (109) 
3

>  <SMILES>  (109) 
[H]c1c([H])c([H])c2c(=O)n([H])c(C([H])([H])N(C(=O)N([H])C([H])([H])C3([H])C([H])([H])C([H])([H])C([H])([H])C3([H])[H])C([H])(C([H])([H])[H])C([H])([H])[H])nc2c1[H]

$$$$
Z1127203562_pose4
     RDKit          3D

 51 53  0  0  0  0  0  0  0  0999 V2000
    2.1078   45.5123   55.9912 C   0  0  0  0  0  0  0  0  0  0  0  0
    2.5953   44.5857   54.8738 C   0  0  0  0  0  0  0  0  0  0  0  0
    1.8303   44.8309   53.5710 C   0  0  0  0  0  0  0  0  0  0  0  0
    4.0603   44.6315   54.6765 N   0  0  0  0  0  0  0  0  0  0  0  0
    4.7201   43.3337   54.4701 C   0  0  0  0  0  0  0  0  0  0  0  0
    5.0613   43.1340   53.0001 C   0  0  0  0  0  0  0  0  0  0  0  0
    6.2111   43.4972   52.5280 N   0  0  0  0  0  0  0  0  0  0  0  0
    6.4577   43.2785   51.1620 C   0  0  0  0  0  0  0  0  0  0  0  0
    7.6859   43.6677   50.6275 C   0  0  0  0  0  0  0  0  0  0  0  0
    7.9694   43.4676   49.2721 C   0  0  0  0  0  0  0  0  0  0  0  0
    7.0208   42.8749   48.4359 C   0  0  0  0  0  0  0  0  0  0  0  0
    5.7889   42.4802   48.9546 C   0  0  0  0  0  0  0  0  0  0  0  0
    5.5173   42.6843   50.3114 C   0  0  0  0  0  0  0  0  0  0  0  0
    4.2298   42.2805   50.8983 C   0  0  0  0  0  0  0  0  0  0  0  0
    3.3489   41.7424   50.2378 O   0  0  0  0  0  0  0  0  0  0  0  0
    4.0886   42.5406   52.2372 N   0  0  0  0  0  0  0  0  0  0  0  0
    4.7543   45.7996   54.9765 C   0  0  0  0  0  0  0  0  0  0  0  0
    5.3197   46.0073   56.0443 O   0  0  0  0  0  0  0  0  0  0  0  0
    4.8053   46.7098   53.9434 N   0  0  0  0  0  0  0  0  0  0  0  0
    5.5731   47.9321   54.1290 C   0  0  0  0  0  0  0  0  0  0  0  0
    6.6284   48.1011   53.0406 C   0  0  0  0  0  0  0  0  0  0  0  0
    7.2568   46.7864   52.5821 C   0  0  0  0  0  0  0  0  0  0  0  0
    8.5229   47.2490   51.8817 C   0  0  0  0  0  0  0  0  0  0  0  0
    9.0471   48.3716   52.7696 C   0  0  0  0  0  0  0  0  0  0  0  0
    7.8293   48.9356   53.5033 C   0  0  0  0  0  0  0  0  0  0  0  0
    1.0195   45.6483   55.9061 H   0  0  0  0  0  0  0  0  0  0  0  0
    2.3463   45.0660   56.9679 H   0  0  0  0  0  0  0  0  0  0  0  0
    2.6073   46.4883   55.9023 H   0  0  0  0  0  0  0  0  0  0  0  0
    2.3732   43.5597   55.2022 H   0  0  0  0  0  0  0  0  0  0  0  0
    0.7546   44.6788   53.7432 H   0  0  0  0  0  0  0  0  0  0  0  0
    2.0051   45.8626   53.2318 H   0  0  0  0  0  0  0  0  0  0  0  0
    2.1815   44.1275   52.8016 H   0  0  0  0  0  0  0  0  0  0  0  0
    5.6455   43.3002   55.0639 H   0  0  0  0  0  0  0  0  0  0  0  0
    4.0353   42.5334   54.7872 H   0  0  0  0  0  0  0  0  0  0  0  0
    8.4389   44.1365   51.2780 H   0  0  0  0  0  0  0  0  0  0  0  0
    8.9425   43.7781   48.8639 H   0  0  0  0  0  0  0  0  0  0  0  0
    7.2454   42.7200   47.3702 H   0  0  0  0  0  0  0  0  0  0  0  0
    5.0367   42.0121   48.3025 H   0  0  0  0  0  0  0  0  0  0  0  0
    3.1883   42.3197   52.6476 H   0  0  0  0  0  0  0  0  0  0  0  0
    3.8894   46.8745   53.5516 H   0  0  0  0  0  0  0  0  0  0  0  0
    4.8881   48.7922   54.0992 H   0  0  0  0  0  0  0  0  0  0  0  0
    6.0860   47.8728   55.1003 H   0  0  0  0  0  0  0  0  0  0  0  0
    6.0602   48.5844   52.2321 H   0  0  0  0  0  0  0  0  0  0  0  0
    7.4916   46.1385   53.4394 H   0  0  0  0  0  0  0  0  0  0  0  0
    6.5957   46.1872   51.9387 H   0  0  0  0  0  0  0  0  0  0  0  0
    9.2541   46.4299   51.8146 H   0  0  0  0  0  0  0  0  0  0  0  0
    8.3388   47.5778   50.8483 H   0  0  0  0  0  0  0  0  0  0  0  0
    9.7788   47.9781   53.4906 H   0  0  0  0  0  0  0  0  0  0  0  0
    9.5552   49.1477   52.1784 H   0  0  0  0  0  0  0  0  0  0  0  0
    7.9623   48.8424   54.5913 H   0  0  0  0  0  0  0  0  0  0  0  0
    7.6857   50.0034   53.2811 H   0  0  0  0  0  0  0  0  0  0  0  0
  1  2  1  0
  2  3  1  0
  2  4  1  0
  4  5  1  0
  5  6  1  0
  6  7  2  0
  7  8  1  0
  8  9  2  0
  9 10  1  0
 10 11  2  0
 11 12  1  0
 12 13  2  0
 13 14  1  0
 14 15  2  0
 14 16  1  0
  4 17  1  0
 17 18  2  0
 17 19  1  0
 19 20  1  0
 20 21  1  0
 21 22  1  0
 22 23  1  0
 23 24  1  0
 24 25  1  0
 16  6  1  0
 25 21  1  0
 13  8  1  0
  1 26  1  0
  1 27  1  0
  1 28  1  0
  2 29  1  0
  3 30  1  0
  3 31  1  0
  3 32  1  0
  5 33  1  0
  5 34  1  0
  9 35  1  0
 10 36  1  0
 11 37  1  0
 12 38  1  0
 16 39  1  0
 19 40  1  0
 20 41  1  0
 20 42  1  0
 21 43  1  0
 22 44  1  0
 22 45  1  0
 23 46  1  0
 23 47  1  0
 24 48  1  0
 24 49  1  0
 25 50  1  0
 25 51  1  0
M  END
>  <meeko>  (110) 
{"is_sidechain": false}

>  <CID>  (110) 
Z1127203562

>  <pose_index>  (110) 
4

>  <docking_score>  (110) 
-8.544

>  <rmsd_to_best_selected>  (110) 
1.805909149790075

>  <MWT>  (110) 
342.44299999999964

>  <TPSA>  (110) 
78.09

>  <logP>  (110) 
3.0333000000000014

>  <HBD>  (110) 
2

>  <HBA>  (110) 
3

>  <SMILES>  (110) 
[H]c1c([H])c([H])c2c(=O)n([H])c(C([H])([H])N(C(=O)N([H])C([H])([H])C3([H])C([H])([H])C([H])([H])C([H])([H])C3([H])[H])C([H])(C([H])([H])[H])C([H])([H])[H])nc2c1[H]

$$$$
Z1127203562_pose5
     RDKit          3D

 51 53  0  0  0  0  0  0  0  0999 V2000
    2.4771   46.5299   53.5060 C   0  0  0  0  0  0  0  0  0  0  0  0
    2.5752   45.5279   54.6585 C   0  0  0  0  0  0  0  0  0  0  0  0
    1.4519   44.4895   54.5939 C   0  0  0  0  0  0  0  0  0  0  0  0
    3.9093   44.8994   54.7722 N   0  0  0  0  0  0  0  0  0  0  0  0
    3.9577   43.4494   54.5300 C   0  0  0  0  0  0  0  0  0  0  0  0
    4.5629   43.1558   53.1648 C   0  0  0  0  0  0  0  0  0  0  0  0
    5.2451   44.0557   52.5310 N   0  0  0  0  0  0  0  0  0  0  0  0
    5.7779   43.7119   51.2758 C   0  0  0  0  0  0  0  0  0  0  0  0
    6.5097   44.6669   50.5695 C   0  0  0  0  0  0  0  0  0  0  0  0
    7.0553   44.3643   49.3173 C   0  0  0  0  0  0  0  0  0  0  0  0
    6.8724   43.0966   48.7602 C   0  0  0  0  0  0  0  0  0  0  0  0
    6.1438   42.1309   49.4521 C   0  0  0  0  0  0  0  0  0  0  0  0
    5.6036   42.4462   50.7044 C   0  0  0  0  0  0  0  0  0  0  0  0
    4.8295   41.4554   51.4696 C   0  0  0  0  0  0  0  0  0  0  0  0
    4.6340   40.3182   51.0582 O   0  0  0  0  0  0  0  0  0  0  0  0
    4.3519   41.8911   52.6773 N   0  0  0  0  0  0  0  0  0  0  0  0
    4.9504   45.6086   55.3642 C   0  0  0  0  0  0  0  0  0  0  0  0
    5.1095   45.7100   56.5744 O   0  0  0  0  0  0  0  0  0  0  0  0
    5.8402   46.1610   54.4691 N   0  0  0  0  0  0  0  0  0  0  0  0
    7.0082   46.8577   54.9870 C   0  0  0  0  0  0  0  0  0  0  0  0
    7.7134   47.6560   53.8962 C   0  0  0  0  0  0  0  0  0  0  0  0
    6.7624   48.2859   52.8795 C   0  0  0  0  0  0  0  0  0  0  0  0
    7.6843   48.6066   51.7156 C   0  0  0  0  0  0  0  0  0  0  0  0
    8.6072   47.3961   51.6308 C   0  0  0  0  0  0  0  0  0  0  0  0
    8.6439   46.7924   53.0363 C   0  0  0  0  0  0  0  0  0  0  0  0
    1.7362   47.3038   53.7550 H   0  0  0  0  0  0  0  0  0  0  0  0
    3.4584   47.0002   53.3445 H   0  0  0  0  0  0  0  0  0  0  0  0
    2.1665   46.0060   52.5900 H   0  0  0  0  0  0  0  0  0  0  0  0
    2.4407   46.1058   55.5848 H   0  0  0  0  0  0  0  0  0  0  0  0
    0.4803   44.9930   54.7057 H   0  0  0  0  0  0  0  0  0  0  0  0
    1.4870   43.9714   53.6242 H   0  0  0  0  0  0  0  0  0  0  0  0
    1.5815   43.7582   55.4053 H   0  0  0  0  0  0  0  0  0  0  0  0
    4.5720   42.9729   55.3081 H   0  0  0  0  0  0  0  0  0  0  0  0
    2.9330   43.0502   54.5577 H   0  0  0  0  0  0  0  0  0  0  0  0
    6.6591   45.6675   51.0013 H   0  0  0  0  0  0  0  0  0  0  0  0
    7.6298   45.1264   48.7703 H   0  0  0  0  0  0  0  0  0  0  0  0
    7.3030   42.8607   47.7759 H   0  0  0  0  0  0  0  0  0  0  0  0
    5.9948   41.1310   49.0185 H   0  0  0  0  0  0  0  0  0  0  0  0
    3.7710   41.2408   53.1946 H   0  0  0  0  0  0  0  0  0  0  0  0
    5.3623   46.6765   53.7438 H   0  0  0  0  0  0  0  0  0  0  0  0
    6.6895   47.5458   55.7838 H   0  0  0  0  0  0  0  0  0  0  0  0
    7.7128   46.1075   55.3751 H   0  0  0  0  0  0  0  0  0  0  0  0
    8.2546   48.4195   54.4743 H   0  0  0  0  0  0  0  0  0  0  0  0
    5.9762   47.5774   52.5795 H   0  0  0  0  0  0  0  0  0  0  0  0
    6.2271   49.1648   53.2681 H   0  0  0  0  0  0  0  0  0  0  0  0
    7.1110   48.7272   50.7846 H   0  0  0  0  0  0  0  0  0  0  0  0
    8.2341   49.5486   51.8585 H   0  0  0  0  0  0  0  0  0  0  0  0
    8.2119   46.6642   50.9110 H   0  0  0  0  0  0  0  0  0  0  0  0
    9.6132   47.6804   51.2886 H   0  0  0  0  0  0  0  0  0  0  0  0
    8.2868   45.7523   53.0142 H   0  0  0  0  0  0  0  0  0  0  0  0
    9.6668   46.7795   53.4408 H   0  0  0  0  0  0  0  0  0  0  0  0
  1  2  1  0
  2  3  1  0
  2  4  1  0
  4  5  1  0
  5  6  1  0
  6  7  2  0
  7  8  1  0
  8  9  2  0
  9 10  1  0
 10 11  2  0
 11 12  1  0
 12 13  2  0
 13 14  1  0
 14 15  2  0
 14 16  1  0
  4 17  1  0
 17 18  2  0
 17 19  1  0
 19 20  1  0
 20 21  1  0
 21 22  1  0
 22 23  1  0
 23 24  1  0
 24 25  1  0
 16  6  1  0
 25 21  1  0
 13  8  1  0
  1 26  1  0
  1 27  1  0
  1 28  1  0
  2 29  1  0
  3 30  1  0
  3 31  1  0
  3 32  1  0
  5 33  1  0
  5 34  1  0
  9 35  1  0
 10 36  1  0
 11 37  1  0
 12 38  1  0
 16 39  1  0
 19 40  1  0
 20 41  1  0
 20 42  1  0
 21 43  1  0
 22 44  1  0
 22 45  1  0
 23 46  1  0
 23 47  1  0
 24 48  1  0
 24 49  1  0
 25 50  1  0
 25 51  1  0
M  END
>  <meeko>  (111) 
{"is_sidechain": false}

>  <CID>  (111) 
Z1127203562

>  <pose_index>  (111) 
5

>  <docking_score>  (111) 
-8.401

>  <rmsd_to_best_selected>  (111) 
1.7211164393235243

>  <MWT>  (111) 
342.44299999999964

>  <TPSA>  (111) 
78.09

>  <logP>  (111) 
3.0333000000000014

>  <HBD>  (111) 
2

>  <HBA>  (111) 
3

>  <SMILES>  (111) 
[H]c1c([H])c([H])c2c(=O)n([H])c(C([H])([H])N(C(=O)N([H])C([H])([H])C3([H])C([H])([H])C([H])([H])C([H])([H])C3([H])[H])C([H])(C([H])([H])[H])C([H])([H])[H])nc2c1[H]

$$$$
Z1127203562_pose8
     RDKit          3D

 51 53  0  0  0  0  0  0  0  0999 V2000
    0.8156   44.7509   54.7991 C   0  0  0  0  0  0  0  0  0  0  0  0
    1.7521   45.9313   54.5318 C   0  0  0  0  0  0  0  0  0  0  0  0
    2.1496   46.6344   55.8319 C   0  0  0  0  0  0  0  0  0  0  0  0
    2.9279   45.5697   53.7120 N   0  0  0  0  0  0  0  0  0  0  0  0
    2.6646   44.6833   52.5683 C   0  0  0  0  0  0  0  0  0  0  0  0
    3.9667   44.1217   52.0151 C   0  0  0  0  0  0  0  0  0  0  0  0
    4.5924   44.7184   51.0515 N   0  0  0  0  0  0  0  0  0  0  0  0
    5.7918   44.1440   50.5937 C   0  0  0  0  0  0  0  0  0  0  0  0
    6.4818   44.7633   49.5510 C   0  0  0  0  0  0  0  0  0  0  0  0
    7.6777   44.2231   49.0676 C   0  0  0  0  0  0  0  0  0  0  0  0
    8.1957   43.0526   49.6259 C   0  0  0  0  0  0  0  0  0  0  0  0
    7.5194   42.4215   50.6689 C   0  0  0  0  0  0  0  0  0  0  0  0
    6.3243   42.9727   51.1446 C   0  0  0  0  0  0  0  0  0  0  0  0
    5.5808   42.3387   52.2450 C   0  0  0  0  0  0  0  0  0  0  0  0
    5.9732   41.3188   52.7988 O   0  0  0  0  0  0  0  0  0  0  0  0
    4.4241   42.9754   52.6130 N   0  0  0  0  0  0  0  0  0  0  0  0
    4.2055   45.8222   54.2004 C   0  0  0  0  0  0  0  0  0  0  0  0
    4.7955   45.0927   54.9881 O   0  0  0  0  0  0  0  0  0  0  0  0
    4.7958   46.9563   53.6856 N   0  0  0  0  0  0  0  0  0  0  0  0
    6.1626   47.2683   54.0747 C   0  0  0  0  0  0  0  0  0  0  0  0
    7.1525   46.9271   52.9667 C   0  0  0  0  0  0  0  0  0  0  0  0
    7.7882   45.5447   53.1117 C   0  0  0  0  0  0  0  0  0  0  0  0
    9.0020   45.6395   52.2024 C   0  0  0  0  0  0  0  0  0  0  0  0
    9.5457   47.0411   52.4578 C   0  0  0  0  0  0  0  0  0  0  0  0
    8.3555   47.8771   52.9312 C   0  0  0  0  0  0  0  0  0  0  0  0
    0.0541   44.7003   54.0069 H   0  0  0  0  0  0  0  0  0  0  0  0
    1.3966   43.8169   54.8093 H   0  0  0  0  0  0  0  0  0  0  0  0
    0.3230   44.8869   55.7731 H   0  0  0  0  0  0  0  0  0  0  0  0
    1.1802   46.6495   53.9259 H   0  0  0  0  0  0  0  0  0  0  0  0
    1.3620   47.3465   56.1193 H   0  0  0  0  0  0  0  0  0  0  0  0
    2.2767   45.8870   56.6289 H   0  0  0  0  0  0  0  0  0  0  0  0
    3.0958   47.1750   55.6819 H   0  0  0  0  0  0  0  0  0  0  0  0
    2.0224   43.8523   52.8953 H   0  0  0  0  0  0  0  0  0  0  0  0
    2.1642   45.2627   51.7784 H   0  0  0  0  0  0  0  0  0  0  0  0
    6.0811   45.6855   49.1048 H   0  0  0  0  0  0  0  0  0  0  0  0
    8.2119   44.7216   48.2453 H   0  0  0  0  0  0  0  0  0  0  0  0
    9.1361   42.6292   49.2432 H   0  0  0  0  0  0  0  0  0  0  0  0
    7.9213   41.4992   51.1136 H   0  0  0  0  0  0  0  0  0  0  0  0
    3.8696   42.5247   53.3321 H   0  0  0  0  0  0  0  0  0  0  0  0
    4.1768   47.7523   53.7430 H   0  0  0  0  0  0  0  0  0  0  0  0
    6.2337   48.3429   54.2987 H   0  0  0  0  0  0  0  0  0  0  0  0
    6.4149   46.6654   54.9596 H   0  0  0  0  0  0  0  0  0  0  0  0
    6.5289   46.9962   52.0632 H   0  0  0  0  0  0  0  0  0  0  0  0
    8.0863   45.3522   54.1529 H   0  0  0  0  0  0  0  0  0  0  0  0
    7.1081   44.7212   52.8483 H   0  0  0  0  0  0  0  0  0  0  0  0
    9.7489   44.8763   52.4663 H   0  0  0  0  0  0  0  0  0  0  0  0
    8.7531   45.4682   51.1447 H   0  0  0  0  0  0  0  0  0  0  0  0
   10.3252   47.0129   53.2334 H   0  0  0  0  0  0  0  0  0  0  0  0
   10.0014   47.4670   51.5517 H   0  0  0  0  0  0  0  0  0  0  0  0
    8.5501   48.2837   53.9346 H   0  0  0  0  0  0  0  0  0  0  0  0
    8.1729   48.7301   52.2610 H   0  0  0  0  0  0  0  0  0  0  0  0
  1  2  1  0
  2  3  1  0
  2  4  1  0
  4  5  1  0
  5  6  1  0
  6  7  2  0
  7  8  1  0
  8  9  2  0
  9 10  1  0
 10 11  2  0
 11 12  1  0
 12 13  2  0
 13 14  1  0
 14 15  2  0
 14 16  1  0
  4 17  1  0
 17 18  2  0
 17 19  1  0
 19 20  1  0
 20 21  1  0
 21 22  1  0
 22 23  1  0
 23 24  1  0
 24 25  1  0
 16  6  1  0
 25 21  1  0
 13  8  1  0
  1 26  1  0
  1 27  1  0
  1 28  1  0
  2 29  1  0
  3 30  1  0
  3 31  1  0
  3 32  1  0
  5 33  1  0
  5 34  1  0
  9 35  1  0
 10 36  1  0
 11 37  1  0
 12 38  1  0
 16 39  1  0
 19 40  1  0
 20 41  1  0
 20 42  1  0
 21 43  1  0
 22 44  1  0
 22 45  1  0
 23 46  1  0
 23 47  1  0
 24 48  1  0
 24 49  1  0
 25 50  1  0
 25 51  1  0
M  END
>  <meeko>  (112) 
{"is_sidechain": false}

>  <CID>  (112) 
Z1127203562

>  <pose_index>  (112) 
8

>  <docking_score>  (112) 
-8.08

>  <rmsd_to_best_selected>  (112) 
1.4471314492694414

>  <MWT>  (112) 
342.44299999999964

>  <TPSA>  (112) 
78.09

>  <logP>  (112) 
3.0333000000000014

>  <HBD>  (112) 
2

>  <HBA>  (112) 
3

>  <SMILES>  (112) 
[H]c1c([H])c([H])c2c(=O)n([H])c(C([H])([H])N(C(=O)N([H])C([H])([H])C3([H])C([H])([H])C([H])([H])C([H])([H])C3([H])[H])C([H])(C([H])([H])[H])C([H])([H])[H])nc2c1[H]

$$$$
Z1139476087_pose1
     RDKit          3D

 49 52  0  0  0  0  0  0  0  0999 V2000
    3.6110   46.0720   55.5680 C   0  0  0  0  0  0  0  0  0  0  0  0
    2.9100   45.5850   54.3550 C   0  0  0  0  0  0  0  0  0  0  0  0
    1.5400   45.6900   54.0550 C   0  0  0  0  0  0  0  0  0  0  0  0
    1.3900   45.1090   52.8150 C   0  0  0  0  0  0  0  0  0  0  0  0
    0.1650   44.9200   51.9950 C   0  0  0  0  0  0  0  0  0  0  0  0
    2.6470   44.7030   52.4440 N   0  0  0  0  0  0  0  0  0  0  0  0
    3.0350   44.0100   51.2320 C   0  0  0  0  0  0  0  0  0  0  0  0
    4.3860   43.2590   51.2510 C   0  0  0  0  0  0  0  0  0  0  0  0
    4.2810   41.8480   50.6440 C   0  0  0  0  0  0  0  0  0  0  0  0
    5.6490   41.1930   50.5320 C   0  0  0  0  0  0  0  0  0  0  0  0
    6.5610   41.9780   49.5930 C   0  0  0  0  0  0  0  0  0  0  0  0
    6.1540   43.4360   49.4110 C   0  0  0  0  0  0  0  0  0  0  0  0
    5.6320   43.9860   50.7080 N   0  0  0  0  0  4  0  0  0  0  0  0
    5.6120   45.5020   50.7310 C   0  0  0  0  0  0  0  0  0  0  0  0
    6.6650   46.0210   51.6520 C   0  0  0  0  0  0  0  0  0  0  0  0
    7.9650   45.9700   51.4200 N   0  0  0  0  0  0  0  0  0  0  0  0
    8.5500   46.5350   52.5330 C   0  0  0  0  0  0  0  0  0  0  0  0
    9.8890   46.7620   52.8720 C   0  0  0  0  0  0  0  0  0  0  0  0
   10.1310   47.3520   54.1150 C   0  0  0  0  0  0  0  0  0  0  0  0
    9.0570   47.6820   54.9410 C   0  0  0  0  0  0  0  0  0  0  0  0
    7.7490   47.4820   54.6500 N   0  0  0  0  0  0  0  0  0  0  0  0
    7.5820   46.9200   53.4460 C   0  0  0  0  0  0  0  0  0  0  0  0
    6.3890   46.5930   52.8690 N   0  0  0  0  0  0  0  0  0  0  0  0
    3.5840   44.9580   53.3800 N   0  0  0  0  0  0  0  0  0  0  0  0
    3.0877   45.7085   56.4647 H   0  0  0  0  0  0  0  0  0  0  0  0
    4.6450   45.6967   55.5695 H   0  0  0  0  0  0  0  0  0  0  0  0
    3.6201   47.1720   55.5695 H   0  0  0  0  0  0  0  0  0  0  0  0
    0.7541   46.1409   54.6788 H   0  0  0  0  0  0  0  0  0  0  0  0
   -0.7027   44.7861   52.6576 H   0  0  0  0  0  0  0  0  0  0  0  0
    0.0086   45.8046   51.3602 H   0  0  0  0  0  0  0  0  0  0  0  0
    0.2825   44.0294   51.3602 H   0  0  0  0  0  0  0  0  0  0  0  0
    2.2498   43.2736   51.0058 H   0  0  0  0  0  0  0  0  0  0  0  0
    3.1609   44.8024   50.4795 H   0  0  0  0  0  0  0  0  0  0  0  0
    4.5768   43.2005   52.3328 H   0  0  0  0  0  0  0  0  0  0  0  0
    3.6382   41.2282   51.2864 H   0  0  0  0  0  0  0  0  0  0  0  0
    3.8532   41.9347   49.6343 H   0  0  0  0  0  0  0  0  0  0  0  0
    6.1104   41.1526   51.5298 H   0  0  0  0  0  0  0  0  0  0  0  0
    5.5180   40.1798   50.1243 H   0  0  0  0  0  0  0  0  0  0  0  0
    7.5824   41.9520   50.0006 H   0  0  0  0  0  0  0  0  0  0  0  0
    6.4879   41.5007   48.6046 H   0  0  0  0  0  0  0  0  0  0  0  0
    7.0286   44.0219   49.0919 H   0  0  0  0  0  0  0  0  0  0  0  0
    5.3654   43.4996   48.6467 H   0  0  0  0  0  0  0  0  0  0  0  0
    6.3620   43.7870   51.4140 H   0  0  0  0  0  0  0  0  0  0  0  0
    5.7984   45.8826   49.7159 H   0  0  0  0  0  0  0  0  0  0  0  0
    4.6277   45.8410   51.0864 H   0  0  0  0  0  0  0  0  0  0  0  0
   10.7103   46.4892   52.1930 H   0  0  0  0  0  0  0  0  0  0  0  0
   11.1621   47.5549   54.4401 H   0  0  0  0  0  0  0  0  0  0  0  0
    9.2918   48.1440   55.9113 H   0  0  0  0  0  0  0  0  0  0  0  0
    5.4850   46.7590   53.2980 H   0  0  0  0  0  0  0  0  0  0  0  0
  1  2  1  0
  2  3  1  0
  3  4  2  0
  4  5  1  0
  4  6  1  0
  6  7  1  0
  7  8  1  0
  8  9  1  0
  9 10  1  0
 10 11  1  0
 11 12  1  0
 12 13  1  0
 13 14  1  0
 14 15  1  0
 15 16  2  0
 16 17  1  0
 17 18  2  0
 18 19  1  0
 19 20  2  0
 20 21  1  0
 21 22  2  0
 22 23  1  0
  6 24  1  0
 24  2  2  0
 13  8  1  0
 23 15  1  0
 22 17  1  0
  1 25  1  0
  1 26  1  0
  1 27  1  0
  3 28  1  0
  5 29  1  0
  5 30  1  0
  5 31  1  0
  7 32  1  0
  7 33  1  0
  8 34  1  0
  9 35  1  0
  9 36  1  0
 10 37  1  0
 10 38  1  0
 11 39  1  0
 11 40  1  0
 12 41  1  0
 12 42  1  0
 13 43  1  0
 14 44  1  0
 14 45  1  0
 18 46  1  0
 19 47  1  0
 20 48  1  0
 23 49  1  0
M  CHG  1  13   1
M  END
>  <meeko>  (113) 
{"is_sidechain": false}

>  <CID>  (113) 
Z1139476087

>  <pose_index>  (113) 
1

>  <docking_score>  (113) 
-8.673

>  <rmsd_to_best_selected>  (113) 
0.0

>  <MWT>  (113) 
325.43999999999954

>  <TPSA>  (113) 
63.830000000000005

>  <logP>  (113) 
1.4088399999999994

>  <HBD>  (113) 
2

>  <HBA>  (113) 
4

>  <SMILES>  (113) 
[H]c1nc2c(nc(C([H])([H])[N+]3([H])C([H])([H])C([H])([H])C([H])([H])C([H])([H])C3([H])C([H])([H])n3nc(C([H])([H])[H])c([H])c3C([H])([H])[H])n2[H])c([H])c1[H]

$$$$
Z1139476087_pose2
     RDKit          3D

 49 52  0  0  0  0  0  0  0  0999 V2000
    2.0451   46.2488   55.7935 C   0  0  0  0  0  0  0  0  0  0  0  0
    1.8936   45.5628   54.4883 C   0  0  0  0  0  0  0  0  0  0  0  0
    0.8043   44.7918   54.0451 C   0  0  0  0  0  0  0  0  0  0  0  0
    1.1321   44.3926   52.7673 C   0  0  0  0  0  0  0  0  0  0  0  0
    0.3698   43.5494   51.8092 C   0  0  0  0  0  0  0  0  0  0  0  0
    2.3652   44.9359   52.5176 N   0  0  0  0  0  0  0  0  0  0  0  0
    3.1729   44.7952   51.3216 C   0  0  0  0  0  0  0  0  0  0  0  0
    4.3741   43.8259   51.3923 C   0  0  0  0  0  0  0  0  0  0  0  0
    4.0267   42.4228   50.8606 C   0  0  0  0  0  0  0  0  0  0  0  0
    5.2615   41.5371   50.7956 C   0  0  0  0  0  0  0  0  0  0  0  0
    6.2931   42.1011   49.8229 C   0  0  0  0  0  0  0  0  0  0  0  0
    6.1434   43.5955   49.5586 C   0  0  0  0  0  0  0  0  0  0  0  0
    5.7266   44.2972   50.8202 N   0  0  0  0  0  4  0  0  0  0  0  0
    5.9677   45.7920   50.7619 C   0  0  0  0  0  0  0  0  0  0  0  0
    7.1732   46.1550   51.5612 C   0  0  0  0  0  0  0  0  0  0  0  0
    8.4163   45.8311   51.2465 N   0  0  0  0  0  0  0  0  0  0  0  0
    9.1897   46.3452   52.2646 C   0  0  0  0  0  0  0  0  0  0  0  0
   10.5704   46.3257   52.4921 C   0  0  0  0  0  0  0  0  0  0  0  0
   11.0245   46.9403   53.6610 C   0  0  0  0  0  0  0  0  0  0  0  0
   10.1072   47.5340   54.5266 C   0  0  0  0  0  0  0  0  0  0  0  0
    8.7647   47.5774   54.3438 N   0  0  0  0  0  0  0  0  0  0  0  0
    8.3929   46.9776   53.2066 C   0  0  0  0  0  0  0  0  0  0  0  0
    7.1158   46.8539   52.7417 N   0  0  0  0  0  0  0  0  0  0  0  0
    2.8615   45.6306   53.5620 N   0  0  0  0  0  0  0  0  0  0  0  0
    1.8723   45.5298   56.6079 H   0  0  0  0  0  0  0  0  0  0  0  0
    3.0624   46.6590   55.8762 H   0  0  0  0  0  0  0  0  0  0  0  0
    1.3130   47.0667   55.8650 H   0  0  0  0  0  0  0  0  0  0  0  0
   -0.1154   44.5568   54.6010 H   0  0  0  0  0  0  0  0  0  0  0  0
   -0.2981   42.8750   52.3653 H   0  0  0  0  0  0  0  0  0  0  0  0
   -0.2278   44.1943   51.1482 H   0  0  0  0  0  0  0  0  0  0  0  0
    1.0712   42.9550   51.2054 H   0  0  0  0  0  0  0  0  0  0  0  0
    2.5119   44.4452   50.5150 H   0  0  0  0  0  0  0  0  0  0  0  0
    3.6181   45.7881   51.1610 H   0  0  0  0  0  0  0  0  0  0  0  0
    4.5536   43.7947   52.4771 H   0  0  0  0  0  0  0  0  0  0  0  0
    3.2872   41.9587   51.5297 H   0  0  0  0  0  0  0  0  0  0  0  0
    3.6193   42.5270   49.8442 H   0  0  0  0  0  0  0  0  0  0  0  0
    5.7104   41.4728   51.7977 H   0  0  0  0  0  0  0  0  0  0  0  0
    4.9577   40.5405   50.4427 H   0  0  0  0  0  0  0  0  0  0  0  0
    7.2954   41.9221   50.2393 H   0  0  0  0  0  0  0  0  0  0  0  0
    6.1369   41.5903   48.8613 H   0  0  0  0  0  0  0  0  0  0  0  0
    7.1053   44.0035   49.2147 H   0  0  0  0  0  0  0  0  0  0  0  0
    5.3763   43.7522   48.7859 H   0  0  0  0  0  0  0  0  0  0  0  0
    6.4118   44.0135   51.5420 H   0  0  0  0  0  0  0  0  0  0  0  0
    6.1222   46.0938   49.7154 H   0  0  0  0  0  0  0  0  0  0  0  0
    5.0926   46.3114   51.1795 H   0  0  0  0  0  0  0  0  0  0  0  0
   11.2645   45.8492   51.7842 H   0  0  0  0  0  0  0  0  0  0  0  0
   12.0988   46.9558   53.8971 H   0  0  0  0  0  0  0  0  0  0  0  0
   10.5068   48.0076   55.4354 H   0  0  0  0  0  0  0  0  0  0  0  0
    6.2996   47.2259   53.2157 H   0  0  0  0  0  0  0  0  0  0  0  0
  1  2  1  0
  2  3  1  0
  3  4  2  0
  4  5  1  0
  4  6  1  0
  6  7  1  0
  7  8  1  0
  8  9  1  0
  9 10  1  0
 10 11  1  0
 11 12  1  0
 12 13  1  0
 13 14  1  0
 14 15  1  0
 15 16  2  0
 16 17  1  0
 17 18  2  0
 18 19  1  0
 19 20  2  0
 20 21  1  0
 21 22  2  0
 22 23  1  0
  6 24  1  0
 24  2  2  0
 13  8  1  0
 23 15  1  0
 22 17  1  0
  1 25  1  0
  1 26  1  0
  1 27  1  0
  3 28  1  0
  5 29  1  0
  5 30  1  0
  5 31  1  0
  7 32  1  0
  7 33  1  0
  8 34  1  0
  9 35  1  0
  9 36  1  0
 10 37  1  0
 10 38  1  0
 11 39  1  0
 11 40  1  0
 12 41  1  0
 12 42  1  0
 13 43  1  0
 14 44  1  0
 14 45  1  0
 18 46  1  0
 19 47  1  0
 20 48  1  0
 23 49  1  0
M  CHG  1  13   1
M  END
>  <meeko>  (114) 
{"is_sidechain": false}

>  <CID>  (114) 
Z1139476087

>  <pose_index>  (114) 
2

>  <docking_score>  (114) 
-8.481

>  <rmsd_to_best_selected>  (114) 
1.027303233605171

>  <MWT>  (114) 
325.43999999999954

>  <TPSA>  (114) 
63.830000000000005

>  <logP>  (114) 
1.4088399999999994

>  <HBD>  (114) 
2

>  <HBA>  (114) 
4

>  <SMILES>  (114) 
[H]c1nc2c(nc(C([H])([H])[N+]3([H])C([H])([H])C([H])([H])C([H])([H])C([H])([H])C3([H])C([H])([H])n3nc(C([H])([H])[H])c([H])c3C([H])([H])[H])n2[H])c([H])c1[H]

$$$$
Z1139476087_pose4
     RDKit          3D

 49 52  0  0  0  0  0  0  0  0999 V2000
    3.6307   46.5127   55.8579 C   0  0  0  0  0  0  0  0  0  0  0  0
    3.1172   45.8687   54.6243 C   0  0  0  0  0  0  0  0  0  0  0  0
    1.8473   45.3007   54.4178 C   0  0  0  0  0  0  0  0  0  0  0  0
    1.8514   44.8559   53.1135 C   0  0  0  0  0  0  0  0  0  0  0  0
    0.7876   44.1626   52.3415 C   0  0  0  0  0  0  0  0  0  0  0  0
    3.0895   45.1772   52.6191 N   0  0  0  0  0  0  0  0  0  0  0  0
    3.6173   44.9035   51.2970 C   0  0  0  0  0  0  0  0  0  0  0  0
    4.6188   43.7339   51.1672 C   0  0  0  0  0  0  0  0  0  0  0  0
    3.9214   42.3971   50.8554 C   0  0  0  0  0  0  0  0  0  0  0  0
    4.9352   41.2970   50.5777 C   0  0  0  0  0  0  0  0  0  0  0  0
    5.7753   41.6206   49.3452 C   0  0  0  0  0  0  0  0  0  0  0  0
    5.8172   43.1044   48.9955 C   0  0  0  0  0  0  0  0  0  0  0  0
    5.8479   43.9237   50.2544 N   0  0  0  0  0  4  0  0  0  0  0  0
    6.3139   45.3460   50.0127 C   0  0  0  0  0  0  0  0  0  0  0  0
    7.0431   45.8635   51.2061 C   0  0  0  0  0  0  0  0  0  0  0  0
    8.2909   45.5632   51.5198 N   0  0  0  0  0  0  0  0  0  0  0  0
    8.5368   46.2379   52.6966 C   0  0  0  0  0  0  0  0  0  0  0  0
    9.6731   46.3129   53.5114 C   0  0  0  0  0  0  0  0  0  0  0  0
    9.5664   47.0902   54.6675 C   0  0  0  0  0  0  0  0  0  0  0  0
    8.3675   47.7430   54.9503 C   0  0  0  0  0  0  0  0  0  0  0  0
    7.2482   47.6980   54.1880 N   0  0  0  0  0  0  0  0  0  0  0  0
    7.4136   46.9424   53.0946 C   0  0  0  0  0  0  0  0  0  0  0  0
    6.4742   46.7015   52.1347 N   0  0  0  0  0  0  0  0  0  0  0  0
    3.8875   45.7704   53.5311 N   0  0  0  0  0  0  0  0  0  0  0  0
    4.5989   46.0663   56.1289 H   0  0  0  0  0  0  0  0  0  0  0  0
    3.7605   47.5908   55.6820 H   0  0  0  0  0  0  0  0  0  0  0  0
    2.9136   46.3587   56.6777 H   0  0  0  0  0  0  0  0  0  0  0  0
    1.0246   45.2270   55.1442 H   0  0  0  0  0  0  0  0  0  0  0  0
    1.1375   43.1602   52.0538 H   0  0  0  0  0  0  0  0  0  0  0  0
   -0.1158   44.0715   52.9624 H   0  0  0  0  0  0  0  0  0  0  0  0
    0.5537   44.7430   51.4368 H   0  0  0  0  0  0  0  0  0  0  0  0
    2.7640   44.6838   50.6385 H   0  0  0  0  0  0  0  0  0  0  0  0
    4.1925   45.8019   51.0286 H   0  0  0  0  0  0  0  0  0  0  0  0
    5.0521   43.7171   52.1782 H   0  0  0  0  0  0  0  0  0  0  0  0
    3.3032   42.1057   51.7173 H   0  0  0  0  0  0  0  0  0  0  0  0
    3.2992   42.5309   49.9582 H   0  0  0  0  0  0  0  0  0  0  0  0
    5.5998   41.1932   51.4481 H   0  0  0  0  0  0  0  0  0  0  0  0
    4.3906   40.3595   50.3924 H   0  0  0  0  0  0  0  0  0  0  0  0
    6.8047   41.2793   49.5289 H   0  0  0  0  0  0  0  0  0  0  0  0
    5.3040   41.1063   48.4947 H   0  0  0  0  0  0  0  0  0  0  0  0
    6.7189   43.3141   48.4013 H   0  0  0  0  0  0  0  0  0  0  0  0
    4.9208   43.3658   48.4140 H   0  0  0  0  0  0  0  0  0  0  0  0
    6.6315   43.5512   50.8158 H   0  0  0  0  0  0  0  0  0  0  0  0
    6.9852   45.3645   49.1415 H   0  0  0  0  0  0  0  0  0  0  0  0
    5.4362   45.9826   49.8269 H   0  0  0  0  0  0  0  0  0  0  0  0
   10.6037   45.7860   53.2540 H   0  0  0  0  0  0  0  0  0  0  0  0
   10.4233   47.1865   55.3505 H   0  0  0  0  0  0  0  0  0  0  0  0
    8.3267   48.3453   55.8698 H   0  0  0  0  0  0  0  0  0  0  0  0
    5.5368   47.0897   52.1437 H   0  0  0  0  0  0  0  0  0  0  0  0
  1  2  1  0
  2  3  1  0
  3  4  2  0
  4  5  1  0
  4  6  1  0
  6  7  1  0
  7  8  1  0
  8  9  1  0
  9 10  1  0
 10 11  1  0
 11 12  1  0
 12 13  1  0
 13 14  1  0
 14 15  1  0
 15 16  2  0
 16 17  1  0
 17 18  2  0
 18 19  1  0
 19 20  2  0
 20 21  1  0
 21 22  2  0
 22 23  1  0
  6 24  1  0
 24  2  2  0
 13  8  1  0
 23 15  1  0
 22 17  1  0
  1 25  1  0
  1 26  1  0
  1 27  1  0
  3 28  1  0
  5 29  1  0
  5 30  1  0
  5 31  1  0
  7 32  1  0
  7 33  1  0
  8 34  1  0
  9 35  1  0
  9 36  1  0
 10 37  1  0
 10 38  1  0
 11 39  1  0
 11 40  1  0
 12 41  1  0
 12 42  1  0
 13 43  1  0
 14 44  1  0
 14 45  1  0
 18 46  1  0
 19 47  1  0
 20 48  1  0
 23 49  1  0
M  CHG  1  13   1
M  END
>  <meeko>  (115) 
{"is_sidechain": false}

>  <CID>  (115) 
Z1139476087

>  <pose_index>  (115) 
4

>  <docking_score>  (115) 
-8.41

>  <rmsd_to_best_selected>  (115) 
0.9164531198294689

>  <MWT>  (115) 
325.43999999999954

>  <TPSA>  (115) 
63.830000000000005

>  <logP>  (115) 
1.4088399999999994

>  <HBD>  (115) 
2

>  <HBA>  (115) 
4

>  <SMILES>  (115) 
[H]c1nc2c(nc(C([H])([H])[N+]3([H])C([H])([H])C([H])([H])C([H])([H])C([H])([H])C3([H])C([H])([H])n3nc(C([H])([H])[H])c([H])c3C([H])([H])[H])n2[H])c([H])c1[H]

$$$$
Z1139476087_pose5
     RDKit          3D

 49 52  0  0  0  0  0  0  0  0999 V2000
    3.7497   46.6497   55.5466 C   0  0  0  0  0  0  0  0  0  0  0  0
    3.0911   45.9946   54.3900 C   0  0  0  0  0  0  0  0  0  0  0  0
    1.7345   45.6504   54.2581 C   0  0  0  0  0  0  0  0  0  0  0  0
    1.6184   45.0891   53.0044 C   0  0  0  0  0  0  0  0  0  0  0  0
    0.4238   44.5292   52.3197 C   0  0  0  0  0  0  0  0  0  0  0  0
    2.8782   45.1309   52.4653 N   0  0  0  0  0  0  0  0  0  0  0  0
    3.3065   44.6397   51.1698 C   0  0  0  0  0  0  0  0  0  0  0  0
    4.4475   43.5966   51.1543 C   0  0  0  0  0  0  0  0  0  0  0  0
    3.9582   42.2003   50.7302 C   0  0  0  0  0  0  0  0  0  0  0  0
    5.1210   41.2331   50.5723 C   0  0  0  0  0  0  0  0  0  0  0  0
    6.0707   41.6889   49.4667 C   0  0  0  0  0  0  0  0  0  0  0  0
    5.9827   43.1786   49.1507 C   0  0  0  0  0  0  0  0  0  0  0  0
    5.7529   43.9554   50.4156 N   0  0  0  0  0  4  0  0  0  0  0  0
    6.0770   45.4279   50.2616 C   0  0  0  0  0  0  0  0  0  0  0  0
    6.9241   45.8956   51.3962 C   0  0  0  0  0  0  0  0  0  0  0  0
    8.0481   46.5792   51.2709 N   0  0  0  0  0  0  0  0  0  0  0  0
    8.4971   46.7713   52.5607 C   0  0  0  0  0  0  0  0  0  0  0  0
    9.6278   47.4201   53.0693 C   0  0  0  0  0  0  0  0  0  0  0  0
    9.7871   47.4085   54.4576 C   0  0  0  0  0  0  0  0  0  0  0  0
    8.8366   46.7711   55.2540 C   0  0  0  0  0  0  0  0  0  0  0  0
    7.7296   46.1339   54.8023 N   0  0  0  0  0  0  0  0  0  0  0  0
    7.6302   46.1843   53.4671 C   0  0  0  0  0  0  0  0  0  0  0  0
    6.6324   45.6376   52.7130 N   0  0  0  0  0  0  0  0  0  0  0  0
    3.7975   45.6540   53.3020 N   0  0  0  0  0  0  0  0  0  0  0  0
    4.5422   47.3215   55.1851 H   0  0  0  0  0  0  0  0  0  0  0  0
    3.0058   47.2308   56.1114 H   0  0  0  0  0  0  0  0  0  0  0  0
    4.1895   45.8826   56.2010 H   0  0  0  0  0  0  0  0  0  0  0  0
    0.9347   45.7978   54.9987 H   0  0  0  0  0  0  0  0  0  0  0  0
    0.5011   44.7138   51.2380 H   0  0  0  0  0  0  0  0  0  0  0  0
    0.3697   43.4461   52.5038 H   0  0  0  0  0  0  0  0  0  0  0  0
   -0.4833   45.0134   52.7104 H   0  0  0  0  0  0  0  0  0  0  0  0
    2.4325   44.1821   50.6833 H   0  0  0  0  0  0  0  0  0  0  0  0
    3.7183   45.5196   50.6538 H   0  0  0  0  0  0  0  0  0  0  0  0
    4.7454   43.5964   52.2131 H   0  0  0  0  0  0  0  0  0  0  0  0
    3.2712   41.8129   51.4970 H   0  0  0  0  0  0  0  0  0  0  0  0
    3.4470   42.2907   49.7604 H   0  0  0  0  0  0  0  0  0  0  0  0
    5.6745   41.1791   51.5214 H   0  0  0  0  0  0  0  0  0  0  0  0
    4.7191   40.2455   50.3018 H   0  0  0  0  0  0  0  0  0  0  0  0
    7.1005   41.4615   49.7792 H   0  0  0  0  0  0  0  0  0  0  0  0
    5.7778   41.1511   48.5528 H   0  0  0  0  0  0  0  0  0  0  0  0
    6.9229   43.5091   48.6851 H   0  0  0  0  0  0  0  0  0  0  0  0
    5.1448   43.3541   48.4599 H   0  0  0  0  0  0  0  0  0  0  0  0
    6.4962   43.6565   51.0709 H   0  0  0  0  0  0  0  0  0  0  0  0
    6.6188   45.5829   49.3170 H   0  0  0  0  0  0  0  0  0  0  0  0
    5.1382   46.0012   50.2576 H   0  0  0  0  0  0  0  0  0  0  0  0
   10.3553   47.9147   52.4089 H   0  0  0  0  0  0  0  0  0  0  0  0
   10.6568   47.8992   54.9191 H   0  0  0  0  0  0  0  0  0  0  0  0
    8.9993   46.7870   56.3418 H   0  0  0  0  0  0  0  0  0  0  0  0
    5.8372   45.1384   53.0975 H   0  0  0  0  0  0  0  0  0  0  0  0
  1  2  1  0
  2  3  1  0
  3  4  2  0
  4  5  1  0
  4  6  1  0
  6  7  1  0
  7  8  1  0
  8  9  1  0
  9 10  1  0
 10 11  1  0
 11 12  1  0
 12 13  1  0
 13 14  1  0
 14 15  1  0
 15 16  2  0
 16 17  1  0
 17 18  2  0
 18 19  1  0
 19 20  2  0
 20 21  1  0
 21 22  2  0
 22 23  1  0
  6 24  1  0
 24  2  2  0
 13  8  1  0
 23 15  1  0
 22 17  1  0
  1 25  1  0
  1 26  1  0
  1 27  1  0
  3 28  1  0
  5 29  1  0
  5 30  1  0
  5 31  1  0
  7 32  1  0
  7 33  1  0
  8 34  1  0
  9 35  1  0
  9 36  1  0
 10 37  1  0
 10 38  1  0
 11 39  1  0
 11 40  1  0
 12 41  1  0
 12 42  1  0
 13 43  1  0
 14 44  1  0
 14 45  1  0
 18 46  1  0
 19 47  1  0
 20 48  1  0
 23 49  1  0
M  CHG  1  13   1
M  END
>  <meeko>  (116) 
{"is_sidechain": false}

>  <CID>  (116) 
Z1139476087

>  <pose_index>  (116) 
5

>  <docking_score>  (116) 
-8.333

>  <rmsd_to_best_selected>  (116) 
0.7998899984979455

>  <MWT>  (116) 
325.43999999999954

>  <TPSA>  (116) 
63.830000000000005

>  <logP>  (116) 
1.4088399999999994

>  <HBD>  (116) 
2

>  <HBA>  (116) 
4

>  <SMILES>  (116) 
[H]c1nc2c(nc(C([H])([H])[N+]3([H])C([H])([H])C([H])([H])C([H])([H])C([H])([H])C3([H])C([H])([H])n3nc(C([H])([H])[H])c([H])c3C([H])([H])[H])n2[H])c([H])c1[H]

$$$$
Z1139476087_pose6
     RDKit          3D

 49 52  0  0  0  0  0  0  0  0999 V2000
    3.6739   46.0385   55.6892 C   0  0  0  0  0  0  0  0  0  0  0  0
    2.9700   45.6122   54.4556 C   0  0  0  0  0  0  0  0  0  0  0  0
    1.5929   45.6874   54.1841 C   0  0  0  0  0  0  0  0  0  0  0  0
    1.4420   45.1895   52.9076 C   0  0  0  0  0  0  0  0  0  0  0  0
    0.2107   45.0126   52.0938 C   0  0  0  0  0  0  0  0  0  0  0  0
    2.7059   44.8573   52.4917 N   0  0  0  0  0  0  0  0  0  0  0  0
    3.0984   44.2644   51.2270 C   0  0  0  0  0  0  0  0  0  0  0  0
    4.3776   43.3984   51.2227 C   0  0  0  0  0  0  0  0  0  0  0  0
    4.1225   41.9785   50.6851 C   0  0  0  0  0  0  0  0  0  0  0  0
    5.4217   41.2010   50.5438 C   0  0  0  0  0  0  0  0  0  0  0  0
    6.3523   41.8613   49.5305 C   0  0  0  0  0  0  0  0  0  0  0  0
    6.0651   43.3416   49.2995 C   0  0  0  0  0  0  0  0  0  0  0  0
    5.6558   43.9898   50.5912 N   0  0  0  0  0  4  0  0  0  0  0  0
    5.7670   45.5007   50.5465 C   0  0  0  0  0  0  0  0  0  0  0  0
    6.7835   45.9753   51.5298 C   0  0  0  0  0  0  0  0  0  0  0  0
    8.0853   45.7661   51.4343 N   0  0  0  0  0  0  0  0  0  0  0  0
    8.6260   46.3526   52.5580 C   0  0  0  0  0  0  0  0  0  0  0  0
    9.9446   46.4602   53.0144 C   0  0  0  0  0  0  0  0  0  0  0  0
   10.1375   47.1187   54.2313 C   0  0  0  0  0  0  0  0  0  0  0  0
    9.0375   47.6296   54.9186 C   0  0  0  0  0  0  0  0  0  0  0  0
    7.7473   47.5490   54.5122 N   0  0  0  0  0  0  0  0  0  0  0  0
    7.6287   46.9124   53.3395 C   0  0  0  0  0  0  0  0  0  0  0  0
    6.4648   46.6710   52.6700 N   0  0  0  0  0  0  0  0  0  0  0  0
    3.6494   45.0799   53.4292 N   0  0  0  0  0  0  0  0  0  0  0  0
    4.3513   45.2375   56.0202 H   0  0  0  0  0  0  0  0  0  0  0  0
    4.2557   46.9491   55.4834 H   0  0  0  0  0  0  0  0  0  0  0  0
    2.9368   46.2451   56.4792 H   0  0  0  0  0  0  0  0  0  0  0  0
    0.8023   46.0640   54.8498 H   0  0  0  0  0  0  0  0  0  0  0  0
    0.1498   43.9720   51.7425 H   0  0  0  0  0  0  0  0  0  0  0  0
   -0.6715   45.2443   52.7086 H   0  0  0  0  0  0  0  0  0  0  0  0
    0.2428   45.6906   51.2282 H   0  0  0  0  0  0  0  0  0  0  0  0
    2.2672   43.6293   50.8866 H   0  0  0  0  0  0  0  0  0  0  0  0
    3.3301   45.1175   50.5724 H   0  0  0  0  0  0  0  0  0  0  0  0
    4.6131   43.3680   52.2968 H   0  0  0  0  0  0  0  0  0  0  0  0
    3.4593   41.4449   51.3819 H   0  0  0  0  0  0  0  0  0  0  0  0
    3.6568   42.0610   49.6920 H   0  0  0  0  0  0  0  0  0  0  0  0
    5.9249   41.1623   51.5212 H   0  0  0  0  0  0  0  0  0  0  0  0
    5.1842   40.1870   50.1895 H   0  0  0  0  0  0  0  0  0  0  0  0
    7.3859   41.7618   49.8936 H   0  0  0  0  0  0  0  0  0  0  0  0
    6.1909   41.3512   48.5694 H   0  0  0  0  0  0  0  0  0  0  0  0
    6.9709   43.8334   48.9154 H   0  0  0  0  0  0  0  0  0  0  0  0
    5.2492   43.4427   48.5687 H   0  0  0  0  0  0  0  0  0  0  0  0
    6.3977   43.7567   51.2737 H   0  0  0  0  0  0  0  0  0  0  0  0
    6.0674   45.8125   49.5353 H   0  0  0  0  0  0  0  0  0  0  0  0
    4.7909   45.9386   50.8020 H   0  0  0  0  0  0  0  0  0  0  0  0
   10.7882   46.0463   52.4427 H   0  0  0  0  0  0  0  0  0  0  0  0
   11.1505   47.2333   54.6444 H   0  0  0  0  0  0  0  0  0  0  0  0
    9.2336   48.1419   55.8721 H   0  0  0  0  0  0  0  0  0  0  0  0
    5.5494   46.9684   52.9923 H   0  0  0  0  0  0  0  0  0  0  0  0
  1  2  1  0
  2  3  1  0
  3  4  2  0
  4  5  1  0
  4  6  1  0
  6  7  1  0
  7  8  1  0
  8  9  1  0
  9 10  1  0
 10 11  1  0
 11 12  1  0
 12 13  1  0
 13 14  1  0
 14 15  1  0
 15 16  2  0
 16 17  1  0
 17 18  2  0
 18 19  1  0
 19 20  2  0
 20 21  1  0
 21 22  2  0
 22 23  1  0
  6 24  1  0
 24  2  2  0
 13  8  1  0
 23 15  1  0
 22 17  1  0
  1 25  1  0
  1 26  1  0
  1 27  1  0
  3 28  1  0
  5 29  1  0
  5 30  1  0
  5 31  1  0
  7 32  1  0
  7 33  1  0
  8 34  1  0
  9 35  1  0
  9 36  1  0
 10 37  1  0
 10 38  1  0
 11 39  1  0
 11 40  1  0
 12 41  1  0
 12 42  1  0
 13 43  1  0
 14 44  1  0
 14 45  1  0
 18 46  1  0
 19 47  1  0
 20 48  1  0
 23 49  1  0
M  CHG  1  13   1
M  END
>  <meeko>  (117) 
{"is_sidechain": false}

>  <CID>  (117) 
Z1139476087

>  <pose_index>  (117) 
6

>  <docking_score>  (117) 
-8.152

>  <rmsd_to_best_selected>  (117) 
0.25702085667398405

>  <MWT>  (117) 
325.43999999999954

>  <TPSA>  (117) 
63.830000000000005

>  <logP>  (117) 
1.4088399999999994

>  <HBD>  (117) 
2

>  <HBA>  (117) 
4

>  <SMILES>  (117) 
[H]c1nc2c(nc(C([H])([H])[N+]3([H])C([H])([H])C([H])([H])C([H])([H])C([H])([H])C3([H])C([H])([H])n3nc(C([H])([H])[H])c([H])c3C([H])([H])[H])n2[H])c([H])c1[H]

$$$$
Z1139476087_pose9
     RDKit          3D

 49 52  0  0  0  0  0  0  0  0999 V2000
    1.4634   46.1455   55.6781 C   0  0  0  0  0  0  0  0  0  0  0  0
    1.4574   45.7463   54.2499 C   0  0  0  0  0  0  0  0  0  0  0  0
    0.3595   45.3140   53.4840 C   0  0  0  0  0  0  0  0  0  0  0  0
    0.8609   45.0836   52.2210 C   0  0  0  0  0  0  0  0  0  0  0  0
    0.1692   44.6025   50.9961 C   0  0  0  0  0  0  0  0  0  0  0  0
    2.1956   45.3881   52.2941 N   0  0  0  0  0  0  0  0  0  0  0  0
    3.1886   45.2905   51.2417 C   0  0  0  0  0  0  0  0  0  0  0  0
    4.1962   44.1218   51.3299 C   0  0  0  0  0  0  0  0  0  0  0  0
    3.7922   42.9316   50.4406 C   0  0  0  0  0  0  0  0  0  0  0  0
    4.8749   41.8631   50.4234 C   0  0  0  0  0  0  0  0  0  0  0  0
    6.1709   42.4025   49.8257 C   0  0  0  0  0  0  0  0  0  0  0  0
    6.2926   43.9220   49.8781 C   0  0  0  0  0  0  0  0  0  0  0  0
    5.6962   44.4369   51.1567 N   0  0  0  0  0  4  0  0  0  0  0  0
    6.1464   45.8476   51.4828 C   0  0  0  0  0  0  0  0  0  0  0  0
    7.4766   45.8231   52.1581 C   0  0  0  0  0  0  0  0  0  0  0  0
    8.5985   45.3985   51.6049 N   0  0  0  0  0  0  0  0  0  0  0  0
    9.5567   45.5344   52.5873 C   0  0  0  0  0  0  0  0  0  0  0  0
   10.9272   45.2521   52.6027 C   0  0  0  0  0  0  0  0  0  0  0  0
   11.6067   45.4976   53.7985 C   0  0  0  0  0  0  0  0  0  0  0  0
   10.9094   46.0017   54.8948 C   0  0  0  0  0  0  0  0  0  0  0  0
    9.5857   46.2909   54.9220 N   0  0  0  0  0  0  0  0  0  0  0  0
    8.9924   46.0387   53.7476 C   0  0  0  0  0  0  0  0  0  0  0  0
    7.6719   46.2240   53.4573 N   0  0  0  0  0  0  0  0  0  0  0  0
    2.5881   45.7681   53.5278 N   0  0  0  0  0  0  0  0  0  0  0  0
    0.8785   45.4211   56.2638 H   0  0  0  0  0  0  0  0  0  0  0  0
    2.4989   46.1659   56.0487 H   0  0  0  0  0  0  0  0  0  0  0  0
    1.0173   47.1457   55.7811 H   0  0  0  0  0  0  0  0  0  0  0  0
   -0.6796   45.1868   53.8217 H   0  0  0  0  0  0  0  0  0  0  0  0
   -0.7771   44.1167   51.2762 H   0  0  0  0  0  0  0  0  0  0  0  0
   -0.0387   45.4555   50.3335 H   0  0  0  0  0  0  0  0  0  0  0  0
    0.8117   43.8794   50.4723 H   0  0  0  0  0  0  0  0  0  0  0  0
    2.6509   45.1930   50.2870 H   0  0  0  0  0  0  0  0  0  0  0  0
    3.7989   46.2002   51.3413 H   0  0  0  0  0  0  0  0  0  0  0  0
    4.1133   43.8550   52.3938 H   0  0  0  0  0  0  0  0  0  0  0  0
    2.8617   42.4927   50.8299 H   0  0  0  0  0  0  0  0  0  0  0  0
    3.6492   43.2980   49.4133 H   0  0  0  0  0  0  0  0  0  0  0  0
    5.0663   41.5293   51.4538 H   0  0  0  0  0  0  0  0  0  0  0  0
    4.5272   41.0240   49.8028 H   0  0  0  0  0  0  0  0  0  0  0  0
    7.0151   41.9684   50.3815 H   0  0  0  0  0  0  0  0  0  0  0  0
    6.1734   42.1194   48.7628 H   0  0  0  0  0  0  0  0  0  0  0  0
    7.3546   44.2050   49.8307 H   0  0  0  0  0  0  0  0  0  0  0  0
    5.7539   44.3590   49.0244 H   0  0  0  0  0  0  0  0  0  0  0  0
    6.1491   43.9034   51.9172 H   0  0  0  0  0  0  0  0  0  0  0  0
    6.2226   46.4286   50.5519 H   0  0  0  0  0  0  0  0  0  0  0  0
    5.4112   46.3112   52.1570 H   0  0  0  0  0  0  0  0  0  0  0  0
   11.4444   44.8562   51.7163 H   0  0  0  0  0  0  0  0  0  0  0  0
   12.6851   45.2942   53.8742 H   0  0  0  0  0  0  0  0  0  0  0  0
   11.4823   46.1801   55.8167 H   0  0  0  0  0  0  0  0  0  0  0  0
    6.9907   46.5936   54.1129 H   0  0  0  0  0  0  0  0  0  0  0  0
  1  2  1  0
  2  3  1  0
  3  4  2  0
  4  5  1  0
  4  6  1  0
  6  7  1  0
  7  8  1  0
  8  9  1  0
  9 10  1  0
 10 11  1  0
 11 12  1  0
 12 13  1  0
 13 14  1  0
 14 15  1  0
 15 16  2  0
 16 17  1  0
 17 18  2  0
 18 19  1  0
 19 20  2  0
 20 21  1  0
 21 22  2  0
 22 23  1  0
  6 24  1  0
 24  2  2  0
 13  8  1  0
 23 15  1  0
 22 17  1  0
  1 25  1  0
  1 26  1  0
  1 27  1  0
  3 28  1  0
  5 29  1  0
  5 30  1  0
  5 31  1  0
  7 32  1  0
  7 33  1  0
  8 34  1  0
  9 35  1  0
  9 36  1  0
 10 37  1  0
 10 38  1  0
 11 39  1  0
 11 40  1  0
 12 41  1  0
 12 42  1  0
 13 43  1  0
 14 44  1  0
 14 45  1  0
 18 46  1  0
 19 47  1  0
 20 48  1  0
 23 49  1  0
M  CHG  1  13   1
M  END
>  <meeko>  (118) 
{"is_sidechain": false}

>  <CID>  (118) 
Z1139476087

>  <pose_index>  (118) 
9

>  <docking_score>  (118) 
-8.035

>  <rmsd_to_best_selected>  (118) 
1.3214738508752002

>  <MWT>  (118) 
325.43999999999954

>  <TPSA>  (118) 
63.830000000000005

>  <logP>  (118) 
1.4088399999999994

>  <HBD>  (118) 
2

>  <HBA>  (118) 
4

>  <SMILES>  (118) 
[H]c1nc2c(nc(C([H])([H])[N+]3([H])C([H])([H])C([H])([H])C([H])([H])C([H])([H])C3([H])C([H])([H])n3nc(C([H])([H])[H])c([H])c3C([H])([H])[H])n2[H])c([H])c1[H]

$$$$
Z1192499493_pose1
     RDKit          3D

 39 41  0  0  0  0  0  0  0  0999 V2000
    3.6450   46.8320   52.5640 O   0  0  0  0  0  0  0  0  0  0  0  0
    4.5270   46.3750   53.2860 C   0  0  0  0  0  0  0  0  0  0  0  0
    5.1480   47.2230   54.4030 C   0  0  0  0  0  0  0  0  0  0  0  0
    6.3190   46.6080   54.9310 O   0  0  0  0  0  0  0  0  0  0  0  0
    7.5490   47.2260   54.5450 C   0  0  0  0  0  0  0  0  0  0  0  0
    8.4690   46.3940   53.6380 C   0  0  0  0  0  0  0  0  0  0  0  0
    9.8670   46.9480   53.4070 C   0  0  0  0  0  0  0  0  0  0  0  0
   10.2460   46.2770   52.1100 C   0  0  0  0  0  0  0  0  0  0  0  0
    8.9310   46.2670   51.3580 C   0  0  0  0  0  0  0  0  0  0  0  0
    7.8900   46.1770   52.3390 O   0  0  0  0  0  0  0  0  0  0  0  0
    5.0900   45.1150   53.2160 N   0  0  0  0  0  0  0  0  0  0  0  0
    4.7910   44.0710   52.3270 C   0  0  0  0  0  0  0  0  0  0  0  0
    3.6720   43.2410   52.4470 C   0  0  0  0  0  0  0  0  0  0  0  0
    3.4390   42.2170   51.5180 C   0  0  0  0  0  0  0  0  0  0  0  0
    4.3150   42.0060   50.4560 C   0  0  0  0  0  0  0  0  0  0  0  0
    4.0480   40.9700   49.5430 N   0  0  0  0  0  0  0  0  0  0  0  0
    4.8800   40.8050   48.5730 C   0  0  0  0  0  0  0  0  0  0  0  0
    5.9950   41.5680   48.3800 N   0  0  0  0  0  0  0  0  0  0  0  0
    6.3440   42.5990   49.2130 C   0  0  0  0  0  0  0  0  0  0  0  0
    7.3510   43.2730   49.0310 O   0  0  0  0  0  0  0  0  0  0  0  0
    5.4290   42.8400   50.3430 C   0  0  0  0  0  0  0  0  0  0  0  0
    5.6740   43.8660   51.2630 C   0  0  0  0  0  0  0  0  0  0  0  0
    5.4139   48.2103   53.9973 H   0  0  0  0  0  0  0  0  0  0  0  0
    4.4117   47.3204   55.2144 H   0  0  0  0  0  0  0  0  0  0  0  0
    7.3046   48.1569   54.0123 H   0  0  0  0  0  0  0  0  0  0  0  0
    8.1108   47.3740   55.4791 H   0  0  0  0  0  0  0  0  0  0  0  0
    8.5707   45.4612   54.2121 H   0  0  0  0  0  0  0  0  0  0  0  0
    9.8533   48.0431   53.3038 H   0  0  0  0  0  0  0  0  0  0  0  0
   10.5677   46.7557   54.2329 H   0  0  0  0  0  0  0  0  0  0  0  0
   11.0098   46.8558   51.5699 H   0  0  0  0  0  0  0  0  0  0  0  0
   10.6863   45.2777   52.2423 H   0  0  0  0  0  0  0  0  0  0  0  0
    8.8219   47.1933   50.7748 H   0  0  0  0  0  0  0  0  0  0  0  0
    8.8852   45.4205   50.6571 H   0  0  0  0  0  0  0  0  0  0  0  0
    5.8070   44.9510   53.9220 H   0  0  0  0  0  0  0  0  0  0  0  0
    2.9678   43.3929   53.2782 H   0  0  0  0  0  0  0  0  0  0  0  0
    2.5542   41.5729   51.6292 H   0  0  0  0  0  0  0  0  0  0  0  0
    4.6786   39.9971   47.8542 H   0  0  0  0  0  0  0  0  0  0  0  0
    6.6140   41.3930   47.6010 H   0  0  0  0  0  0  0  0  0  0  0  0
    6.5590   44.5092   51.1490 H   0  0  0  0  0  0  0  0  0  0  0  0
  1  2  2  0
  2  3  1  0
  3  4  1  0
  4  5  1  0
  5  6  1  0
  6  7  1  0
  7  8  1  0
  8  9  1  0
  9 10  1  0
  2 11  1  0
 11 12  1  0
 12 13  2  0
 13 14  1  0
 14 15  2  0
 15 16  1  0
 16 17  2  0
 17 18  1  0
 18 19  1  0
 19 20  2  0
 19 21  1  0
 21 22  2  0
 10  6  1  0
 22 12  1  0
 21 15  1  0
  3 23  1  0
  3 24  1  0
  5 25  1  0
  5 26  1  0
  6 27  1  0
  7 28  1  0
  7 29  1  0
  8 30  1  0
  8 31  1  0
  9 32  1  0
  9 33  1  0
 11 34  1  0
 13 35  1  0
 14 36  1  0
 17 37  1  0
 18 38  1  0
 22 39  1  0
M  END
>  <meeko>  (119) 
{"is_sidechain": false}

>  <CID>  (119) 
Z1192499493

>  <pose_index>  (119) 
1

>  <docking_score>  (119) 
-8.103

>  <rmsd_to_best_selected>  (119) 
0.0

>  <MWT>  (119) 
303.3179999999997

>  <TPSA>  (119) 
93.31

>  <logP>  (119) 
1.0572

>  <HBD>  (119) 
2

>  <HBA>  (119) 
5

>  <SMILES>  (119) 
[H]c1c(N([H])C(=O)C([H])([H])OC([H])([H])C2([H])OC([H])([H])C([H])([H])C2([H])[H])c([H])c2c(=O)n([H])c([H])nc2c1[H]

$$$$
Z1192499493_pose2
     RDKit          3D

 39 41  0  0  0  0  0  0  0  0999 V2000
    3.9546   46.8101   53.4640 O   0  0  0  0  0  0  0  0  0  0  0  0
    4.8523   46.1852   54.0220 C   0  0  0  0  0  0  0  0  0  0  0  0
    5.5136   46.7249   55.2964 C   0  0  0  0  0  0  0  0  0  0  0  0
    6.9036   46.9629   55.0999 O   0  0  0  0  0  0  0  0  0  0  0  0
    7.2264   47.6967   53.9155 C   0  0  0  0  0  0  0  0  0  0  0  0
    8.4219   47.1776   53.1014 C   0  0  0  0  0  0  0  0  0  0  0  0
    8.1091   46.6416   51.7133 C   0  0  0  0  0  0  0  0  0  0  0  0
    9.2928   45.7379   51.4665 C   0  0  0  0  0  0  0  0  0  0  0  0
    9.5387   45.1499   52.8401 C   0  0  0  0  0  0  0  0  0  0  0  0
    9.1350   46.1395   53.7954 O   0  0  0  0  0  0  0  0  0  0  0  0
    5.4017   44.9811   53.6220 N   0  0  0  0  0  0  0  0  0  0  0  0
    5.0678   44.1947   52.5082 C   0  0  0  0  0  0  0  0  0  0  0  0
    3.7609   43.8190   52.1840 C   0  0  0  0  0  0  0  0  0  0  0  0
    3.5037   43.0307   51.0532 C   0  0  0  0  0  0  0  0  0  0  0  0
    4.5441   42.6058   50.2296 C   0  0  0  0  0  0  0  0  0  0  0  0
    4.2489   41.8161   49.1037 N   0  0  0  0  0  0  0  0  0  0  0  0
    5.2359   41.4437   48.3648 C   0  0  0  0  0  0  0  0  0  0  0  0
    6.5402   41.7649   48.6072 N   0  0  0  0  0  0  0  0  0  0  0  0
    6.9311   42.5262   49.6774 C   0  0  0  0  0  0  0  0  0  0  0  0
    8.1075   42.8029   49.8861 O   0  0  0  0  0  0  0  0  0  0  0  0
    5.8464   42.9865   50.5605 C   0  0  0  0  0  0  0  0  0  0  0  0
    6.1170   43.7740   51.6866 C   0  0  0  0  0  0  0  0  0  0  0  0
    5.0256   47.6689   55.5805 H   0  0  0  0  0  0  0  0  0  0  0  0
    5.4002   45.9723   56.0905 H   0  0  0  0  0  0  0  0  0  0  0  0
    6.3427   47.6827   53.2606 H   0  0  0  0  0  0  0  0  0  0  0  0
    7.5180   48.6996   54.2605 H   0  0  0  0  0  0  0  0  0  0  0  0
    9.0254   48.0889   52.9782 H   0  0  0  0  0  0  0  0  0  0  0  0
    7.1643   46.0783   51.7035 H   0  0  0  0  0  0  0  0  0  0  0  0
    7.9741   47.4227   50.9506 H   0  0  0  0  0  0  0  0  0  0  0  0
    9.0498   44.9535   50.7346 H   0  0  0  0  0  0  0  0  0  0  0  0
   10.1658   46.2589   51.0465 H   0  0  0  0  0  0  0  0  0  0  0  0
    8.9448   44.2334   52.9710 H   0  0  0  0  0  0  0  0  0  0  0  0
   10.5984   44.8856   52.9711 H   0  0  0  0  0  0  0  0  0  0  0  0
    6.1372   44.6456   54.2417 H   0  0  0  0  0  0  0  0  0  0  0  0
    2.9263   44.1450   52.8220 H   0  0  0  0  0  0  0  0  0  0  0  0
    2.4689   42.7445   50.8137 H   0  0  0  0  0  0  0  0  0  0  0  0
    5.0135   40.8271   47.4815 H   0  0  0  0  0  0  0  0  0  0  0  0
    7.2749   41.4436   47.9929 H   0  0  0  0  0  0  0  0  0  0  0  0
    7.1523   44.0605   51.9236 H   0  0  0  0  0  0  0  0  0  0  0  0
  1  2  2  0
  2  3  1  0
  3  4  1  0
  4  5  1  0
  5  6  1  0
  6  7  1  0
  7  8  1  0
  8  9  1  0
  9 10  1  0
  2 11  1  0
 11 12  1  0
 12 13  2  0
 13 14  1  0
 14 15  2  0
 15 16  1  0
 16 17  2  0
 17 18  1  0
 18 19  1  0
 19 20  2  0
 19 21  1  0
 21 22  2  0
 10  6  1  0
 22 12  1  0
 21 15  1  0
  3 23  1  0
  3 24  1  0
  5 25  1  0
  5 26  1  0
  6 27  1  0
  7 28  1  0
  7 29  1  0
  8 30  1  0
  8 31  1  0
  9 32  1  0
  9 33  1  0
 11 34  1  0
 13 35  1  0
 14 36  1  0
 17 37  1  0
 18 38  1  0
 22 39  1  0
M  END
>  <meeko>  (120) 
{"is_sidechain": false}

>  <CID>  (120) 
Z1192499493

>  <pose_index>  (120) 
2

>  <docking_score>  (120) 
-7.96

>  <rmsd_to_best_selected>  (120) 
1.6600057750378636

>  <MWT>  (120) 
303.3179999999997

>  <TPSA>  (120) 
93.31

>  <logP>  (120) 
1.0572

>  <HBD>  (120) 
2

>  <HBA>  (120) 
5

>  <SMILES>  (120) 
[H]c1c(N([H])C(=O)C([H])([H])OC([H])([H])C2([H])OC([H])([H])C([H])([H])C2([H])[H])c([H])c2c(=O)n([H])c([H])nc2c1[H]

$$$$
Z1192499493_pose3
     RDKit          3D

 39 41  0  0  0  0  0  0  0  0999 V2000
    4.4033   47.0138   52.6671 O   0  0  0  0  0  0  0  0  0  0  0  0
    4.9306   46.3580   53.5599 C   0  0  0  0  0  0  0  0  0  0  0  0
    5.3749   47.0223   54.8683 C   0  0  0  0  0  0  0  0  0  0  0  0
    6.7869   46.9495   55.0363 O   0  0  0  0  0  0  0  0  0  0  0  0
    7.5399   47.7953   54.1634 C   0  0  0  0  0  0  0  0  0  0  0  0
    8.6482   47.1128   53.3472 C   0  0  0  0  0  0  0  0  0  0  0  0
    8.3187   46.7962   51.8961 C   0  0  0  0  0  0  0  0  0  0  0  0
    9.2981   45.6865   51.6007 C   0  0  0  0  0  0  0  0  0  0  0  0
    9.3252   44.9261   52.9111 C   0  0  0  0  0  0  0  0  0  0  0  0
    9.0801   45.8812   53.9522 O   0  0  0  0  0  0  0  0  0  0  0  0
    5.2150   45.0053   53.5429 N   0  0  0  0  0  0  0  0  0  0  0  0
    4.9679   44.0718   52.5227 C   0  0  0  0  0  0  0  0  0  0  0  0
    3.8637   43.2150   52.5020 C   0  0  0  0  0  0  0  0  0  0  0  0
    3.6835   42.3092   51.4476 C   0  0  0  0  0  0  0  0  0  0  0  0
    4.5993   42.2431   50.4003 C   0  0  0  0  0  0  0  0  0  0  0  0
    4.3849   41.3215   49.3595 N   0  0  0  0  0  0  0  0  0  0  0  0
    5.2531   41.2901   48.4073 C   0  0  0  0  0  0  0  0  0  0  0  0
    6.3573   42.0887   48.3485 N   0  0  0  0  0  0  0  0  0  0  0  0
    6.6559   43.0156   49.3127 C   0  0  0  0  0  0  0  0  0  0  0  0
    7.6542   43.7235   49.2498 O   0  0  0  0  0  0  0  0  0  0  0  0
    5.6989   43.1032   50.4284 C   0  0  0  0  0  0  0  0  0  0  0  0
    5.8913   44.0131   51.4756 C   0  0  0  0  0  0  0  0  0  0  0  0
    5.0705   48.0792   54.8540 H   0  0  0  0  0  0  0  0  0  0  0  0
    4.8995   46.4895   55.7050 H   0  0  0  0  0  0  0  0  0  0  0  0
    6.8369   48.2569   53.4544 H   0  0  0  0  0  0  0  0  0  0  0  0
    8.0563   48.5109   54.8201 H   0  0  0  0  0  0  0  0  0  0  0  0
    9.4369   47.8795   53.3496 H   0  0  0  0  0  0  0  0  0  0  0  0
    7.2789   46.4547   51.7854 H   0  0  0  0  0  0  0  0  0  0  0  0
    8.4008   47.6591   51.2189 H   0  0  0  0  0  0  0  0  0  0  0  0
    8.9426   45.0496   50.7773 H   0  0  0  0  0  0  0  0  0  0  0  0
   10.2867   46.0445   51.2775 H   0  0  0  0  0  0  0  0  0  0  0  0
    8.5432   44.1525   52.9158 H   0  0  0  0  0  0  0  0  0  0  0  0
   10.2941   44.4259   53.0560 H   0  0  0  0  0  0  0  0  0  0  0  0
    5.6546   44.6716   54.3998 H   0  0  0  0  0  0  0  0  0  0  0  0
    3.1297   43.2519   53.3204 H   0  0  0  0  0  0  0  0  0  0  0  0
    2.8084   41.6428   51.4473 H   0  0  0  0  0  0  0  0  0  0  0  0
    5.0932   40.5726   47.5890 H   0  0  0  0  0  0  0  0  0  0  0  0
    7.0057   42.0205   47.5767 H   0  0  0  0  0  0  0  0  0  0  0  0
    6.7665   44.6794   51.4738 H   0  0  0  0  0  0  0  0  0  0  0  0
  1  2  2  0
  2  3  1  0
  3  4  1  0
  4  5  1  0
  5  6  1  0
  6  7  1  0
  7  8  1  0
  8  9  1  0
  9 10  1  0
  2 11  1  0
 11 12  1  0
 12 13  2  0
 13 14  1  0
 14 15  2  0
 15 16  1  0
 16 17  2  0
 17 18  1  0
 18 19  1  0
 19 20  2  0
 19 21  1  0
 21 22  2  0
 10  6  1  0
 22 12  1  0
 21 15  1  0
  3 23  1  0
  3 24  1  0
  5 25  1  0
  5 26  1  0
  6 27  1  0
  7 28  1  0
  7 29  1  0
  8 30  1  0
  8 31  1  0
  9 32  1  0
  9 33  1  0
 11 34  1  0
 13 35  1  0
 14 36  1  0
 17 37  1  0
 18 38  1  0
 22 39  1  0
M  END
>  <meeko>  (121) 
{"is_sidechain": false}

>  <CID>  (121) 
Z1192499493

>  <pose_index>  (121) 
3

>  <docking_score>  (121) 
-7.833

>  <rmsd_to_best_selected>  (121) 
1.4740198979355443

>  <MWT>  (121) 
303.3179999999997

>  <TPSA>  (121) 
93.31

>  <logP>  (121) 
1.0572

>  <HBD>  (121) 
2

>  <HBA>  (121) 
5

>  <SMILES>  (121) 
[H]c1c(N([H])C(=O)C([H])([H])OC([H])([H])C2([H])OC([H])([H])C([H])([H])C2([H])[H])c([H])c2c(=O)n([H])c([H])nc2c1[H]

$$$$
Z1192499493_pose4
     RDKit          3D

 39 41  0  0  0  0  0  0  0  0999 V2000
    4.2215   46.8622   52.1949 O   0  0  0  0  0  0  0  0  0  0  0  0
    4.7958   46.3208   53.1361 C   0  0  0  0  0  0  0  0  0  0  0  0
    5.2947   47.1417   54.3316 C   0  0  0  0  0  0  0  0  0  0  0  0
    6.4624   47.8850   54.0014 O   0  0  0  0  0  0  0  0  0  0  0  0
    7.6574   47.4506   54.6566 C   0  0  0  0  0  0  0  0  0  0  0  0
    8.7147   46.7819   53.7650 C   0  0  0  0  0  0  0  0  0  0  0  0
    9.4820   47.7018   52.8272 C   0  0  0  0  0  0  0  0  0  0  0  0
    9.9482   46.7316   51.7691 C   0  0  0  0  0  0  0  0  0  0  0  0
    8.7676   45.7882   51.6581 C   0  0  0  0  0  0  0  0  0  0  0  0
    8.1510   45.7386   52.9516 O   0  0  0  0  0  0  0  0  0  0  0  0
    5.0921   44.9777   53.2694 N   0  0  0  0  0  0  0  0  0  0  0  0
    4.8068   43.9265   52.3831 C   0  0  0  0  0  0  0  0  0  0  0  0
    3.6899   43.0942   52.4968 C   0  0  0  0  0  0  0  0  0  0  0  0
    3.4698   42.0629   51.5715 C   0  0  0  0  0  0  0  0  0  0  0  0
    4.3598   41.8477   50.5216 C   0  0  0  0  0  0  0  0  0  0  0  0
    4.1074   40.8041   49.6130 N   0  0  0  0  0  0  0  0  0  0  0  0
    4.9503   40.6365   48.6534 C   0  0  0  0  0  0  0  0  0  0  0  0
    6.0650   41.4012   48.4686 N   0  0  0  0  0  0  0  0  0  0  0  0
    6.4012   42.4384   49.2984 C   0  0  0  0  0  0  0  0  0  0  0  0
    7.4082   43.1146   49.1243 O   0  0  0  0  0  0  0  0  0  0  0  0
    5.4722   42.6838   50.4153 C   0  0  0  0  0  0  0  0  0  0  0  0
    5.7036   43.7176   51.3320 C   0  0  0  0  0  0  0  0  0  0  0  0
    4.5026   47.8391   54.6421 H   0  0  0  0  0  0  0  0  0  0  0  0
    5.5458   46.4475   55.1471 H   0  0  0  0  0  0  0  0  0  0  0  0
    8.1218   48.3305   55.1257 H   0  0  0  0  0  0  0  0  0  0  0  0
    7.3380   46.6743   55.3674 H   0  0  0  0  0  0  0  0  0  0  0  0
    9.4262   46.3935   54.5085 H   0  0  0  0  0  0  0  0  0  0  0  0
    8.8285   48.4774   52.4013 H   0  0  0  0  0  0  0  0  0  0  0  0
   10.2954   48.2606   53.3131 H   0  0  0  0  0  0  0  0  0  0  0  0
   10.1405   47.2440   50.8149 H   0  0  0  0  0  0  0  0  0  0  0  0
   10.8942   46.2281   52.0174 H   0  0  0  0  0  0  0  0  0  0  0  0
    8.0519   46.1642   50.9121 H   0  0  0  0  0  0  0  0  0  0  0  0
    9.0922   44.7872   51.3380 H   0  0  0  0  0  0  0  0  0  0  0  0
    5.5740   44.7530   54.1395 H   0  0  0  0  0  0  0  0  0  0  0  0
    2.9766   43.2492   53.3197 H   0  0  0  0  0  0  0  0  0  0  0  0
    2.5851   41.4176   51.6760 H   0  0  0  0  0  0  0  0  0  0  0  0
    4.7589   39.8244   47.9365 H   0  0  0  0  0  0  0  0  0  0  0  0
    6.6940   41.2226   47.6977 H   0  0  0  0  0  0  0  0  0  0  0  0
    6.5882   44.3627   51.2247 H   0  0  0  0  0  0  0  0  0  0  0  0
  1  2  2  0
  2  3  1  0
  3  4  1  0
  4  5  1  0
  5  6  1  0
  6  7  1  0
  7  8  1  0
  8  9  1  0
  9 10  1  0
  2 11  1  0
 11 12  1  0
 12 13  2  0
 13 14  1  0
 14 15  2  0
 15 16  1  0
 16 17  2  0
 17 18  1  0
 18 19  1  0
 19 20  2  0
 19 21  1  0
 21 22  2  0
 10  6  1  0
 22 12  1  0
 21 15  1  0
  3 23  1  0
  3 24  1  0
  5 25  1  0
  5 26  1  0
  6 27  1  0
  7 28  1  0
  7 29  1  0
  8 30  1  0
  8 31  1  0
  9 32  1  0
  9 33  1  0
 11 34  1  0
 13 35  1  0
 14 36  1  0
 17 37  1  0
 18 38  1  0
 22 39  1  0
M  END
>  <meeko>  (122) 
{"is_sidechain": false}

>  <CID>  (122) 
Z1192499493

>  <pose_index>  (122) 
4

>  <docking_score>  (122) 
-7.542

>  <rmsd_to_best_selected>  (122) 
0.7463214846405395

>  <MWT>  (122) 
303.3179999999997

>  <TPSA>  (122) 
93.31

>  <logP>  (122) 
1.0572

>  <HBD>  (122) 
2

>  <HBA>  (122) 
5

>  <SMILES>  (122) 
[H]c1c(N([H])C(=O)C([H])([H])OC([H])([H])C2([H])OC([H])([H])C([H])([H])C2([H])[H])c([H])c2c(=O)n([H])c([H])nc2c1[H]

$$$$
Z1192499493_pose5
     RDKit          3D

 39 41  0  0  0  0  0  0  0  0999 V2000
    4.9119   44.1586   55.1131 O   0  0  0  0  0  0  0  0  0  0  0  0
    5.1586   45.1152   54.3839 C   0  0  0  0  0  0  0  0  0  0  0  0
    5.5770   46.4674   54.9735 C   0  0  0  0  0  0  0  0  0  0  0  0
    5.9874   47.3738   53.9551 O   0  0  0  0  0  0  0  0  0  0  0  0
    7.3015   47.9122   54.1225 C   0  0  0  0  0  0  0  0  0  0  0  0
    8.4543   47.0768   53.5449 C   0  0  0  0  0  0  0  0  0  0  0  0
    9.5525   47.8485   52.8303 C   0  0  0  0  0  0  0  0  0  0  0  0
   10.1410   46.7808   51.9410 C   0  0  0  0  0  0  0  0  0  0  0  0
    8.9146   45.9899   51.5359 C   0  0  0  0  0  0  0  0  0  0  0  0
    7.9846   46.0767   52.6240 O   0  0  0  0  0  0  0  0  0  0  0  0
    5.0929   45.1487   53.0034 N   0  0  0  0  0  0  0  0  0  0  0  0
    4.7414   44.1175   52.1189 C   0  0  0  0  0  0  0  0  0  0  0  0
    3.4629   43.5548   52.0473 C   0  0  0  0  0  0  0  0  0  0  0  0
    3.1856   42.5258   51.1363 C   0  0  0  0  0  0  0  0  0  0  0  0
    4.1760   42.0423   50.2838 C   0  0  0  0  0  0  0  0  0  0  0  0
    3.8620   41.0096   49.3832 N   0  0  0  0  0  0  0  0  0  0  0  0
    4.8042   40.5897   48.6100 C   0  0  0  0  0  0  0  0  0  0  0  0
    6.0767   41.0801   48.6143 N   0  0  0  0  0  0  0  0  0  0  0  0
    6.4833   42.0840   49.4544 C   0  0  0  0  0  0  0  0  0  0  0  0
    7.6312   42.5122   49.4505 O   0  0  0  0  0  0  0  0  0  0  0  0
    5.4497   42.6099   50.3626 C   0  0  0  0  0  0  0  0  0  0  0  0
    5.7405   43.6386   51.2678 C   0  0  0  0  0  0  0  0  0  0  0  0
    4.7237   46.9008   55.5157 H   0  0  0  0  0  0  0  0  0  0  0  0
    6.4268   46.3011   55.6519 H   0  0  0  0  0  0  0  0  0  0  0  0
    7.3249   48.8984   53.6359 H   0  0  0  0  0  0  0  0  0  0  0  0
    7.4728   47.9397   55.2088 H   0  0  0  0  0  0  0  0  0  0  0  0
    8.8928   46.6367   54.4527 H   0  0  0  0  0  0  0  0  0  0  0  0
    9.1403   48.6804   52.2404 H   0  0  0  0  0  0  0  0  0  0  0  0
   10.2808   48.3211   53.5058 H   0  0  0  0  0  0  0  0  0  0  0  0
   10.6389   47.2215   51.0647 H   0  0  0  0  0  0  0  0  0  0  0  0
   10.9153   46.1738   52.4330 H   0  0  0  0  0  0  0  0  0  0  0  0
    8.4719   46.4188   50.6248 H   0  0  0  0  0  0  0  0  0  0  0  0
    9.1744   44.9425   51.3226 H   0  0  0  0  0  0  0  0  0  0  0  0
    5.3459   46.0537   52.6072 H   0  0  0  0  0  0  0  0  0  0  0  0
    2.6675   43.9232   52.7119 H   0  0  0  0  0  0  0  0  0  0  0  0
    2.1743   42.0951   51.0941 H   0  0  0  0  0  0  0  0  0  0  0  0
    4.5663   39.7834   47.9005 H   0  0  0  0  0  0  0  0  0  0  0  0
    6.7765   40.7116   47.9856 H   0  0  0  0  0  0  0  0  0  0  0  0
    6.7524   44.0680   51.3084 H   0  0  0  0  0  0  0  0  0  0  0  0
  1  2  2  0
  2  3  1  0
  3  4  1  0
  4  5  1  0
  5  6  1  0
  6  7  1  0
  7  8  1  0
  8  9  1  0
  9 10  1  0
  2 11  1  0
 11 12  1  0
 12 13  2  0
 13 14  1  0
 14 15  2  0
 15 16  1  0
 16 17  2  0
 17 18  1  0
 18 19  1  0
 19 20  2  0
 19 21  1  0
 21 22  2  0
 10  6  1  0
 22 12  1  0
 21 15  1  0
  3 23  1  0
  3 24  1  0
  5 25  1  0
  5 26  1  0
  6 27  1  0
  7 28  1  0
  7 29  1  0
  8 30  1  0
  8 31  1  0
  9 32  1  0
  9 33  1  0
 11 34  1  0
 13 35  1  0
 14 36  1  0
 17 37  1  0
 18 38  1  0
 22 39  1  0
M  END
>  <meeko>  (123) 
{"is_sidechain": false}

>  <CID>  (123) 
Z1192499493

>  <pose_index>  (123) 
5

>  <docking_score>  (123) 
-7.461

>  <rmsd_to_best_selected>  (123) 
1.107423034114718

>  <MWT>  (123) 
303.3179999999997

>  <TPSA>  (123) 
93.31

>  <logP>  (123) 
1.0572

>  <HBD>  (123) 
2

>  <HBA>  (123) 
5

>  <SMILES>  (123) 
[H]c1c(N([H])C(=O)C([H])([H])OC([H])([H])C2([H])OC([H])([H])C([H])([H])C2([H])[H])c([H])c2c(=O)n([H])c([H])nc2c1[H]

$$$$
Z1192499493_pose6
     RDKit          3D

 39 41  0  0  0  0  0  0  0  0999 V2000
    5.2438   43.8973   55.0761 O   0  0  0  0  0  0  0  0  0  0  0  0
    5.4467   44.9263   54.4381 C   0  0  0  0  0  0  0  0  0  0  0  0
    5.9158   46.2082   55.1379 C   0  0  0  0  0  0  0  0  0  0  0  0
    6.0572   47.2825   54.2143 O   0  0  0  0  0  0  0  0  0  0  0  0
    7.3210   47.9506   54.2583 C   0  0  0  0  0  0  0  0  0  0  0  0
    8.1957   47.8277   53.0012 C   0  0  0  0  0  0  0  0  0  0  0  0
    8.1046   46.5125   52.2426 C   0  0  0  0  0  0  0  0  0  0  0  0
    9.4177   46.5018   51.4992 C   0  0  0  0  0  0  0  0  0  0  0  0
   10.3617   47.1240   52.5077 C   0  0  0  0  0  0  0  0  0  0  0  0
    9.5884   48.0430   53.2908 O   0  0  0  0  0  0  0  0  0  0  0  0
    5.2831   45.1087   53.0774 N   0  0  0  0  0  0  0  0  0  0  0  0
    4.8615   44.1781   52.1146 C   0  0  0  0  0  0  0  0  0  0  0  0
    3.5215   43.9315   51.8045 C   0  0  0  0  0  0  0  0  0  0  0  0
    3.1753   42.9855   50.8290 C   0  0  0  0  0  0  0  0  0  0  0  0
    4.1599   42.2735   50.1472 C   0  0  0  0  0  0  0  0  0  0  0  0
    3.7768   41.3328   49.1754 N   0  0  0  0  0  0  0  0  0  0  0  0
    4.7154   40.6942   48.5649 C   0  0  0  0  0  0  0  0  0  0  0  0
    6.0465   40.8722   48.8040 N   0  0  0  0  0  0  0  0  0  0  0  0
    6.5216   41.7623   49.7324 C   0  0  0  0  0  0  0  0  0  0  0  0
    7.7204   41.9096   49.9405 O   0  0  0  0  0  0  0  0  0  0  0  0
    5.4972   42.5271   50.4631 C   0  0  0  0  0  0  0  0  0  0  0  0
    5.8558   43.4686   51.4353 C   0  0  0  0  0  0  0  0  0  0  0  0
    5.1772   46.4890   55.9031 H   0  0  0  0  0  0  0  0  0  0  0  0
    6.8971   46.0135   55.5952 H   0  0  0  0  0  0  0  0  0  0  0  0
    7.1297   49.0199   54.4313 H   0  0  0  0  0  0  0  0  0  0  0  0
    7.8878   47.4571   55.0616 H   0  0  0  0  0  0  0  0  0  0  0  0
    7.7763   48.6141   52.3564 H   0  0  0  0  0  0  0  0  0  0  0  0
    8.0249   45.6571   52.9297 H   0  0  0  0  0  0  0  0  0  0  0  0
    7.2209   46.4301   51.5928 H   0  0  0  0  0  0  0  0  0  0  0  0
    9.7243   45.4761   51.2460 H   0  0  0  0  0  0  0  0  0  0  0  0
    9.3851   47.0349   50.5376 H   0  0  0  0  0  0  0  0  0  0  0  0
   10.7916   46.3448   53.1543 H   0  0  0  0  0  0  0  0  0  0  0  0
   11.1927   47.6389   52.0035 H   0  0  0  0  0  0  0  0  0  0  0  0
    5.5146   46.0510   52.7631 H   0  0  0  0  0  0  0  0  0  0  0  0
    2.7301   44.4851   52.3311 H   0  0  0  0  0  0  0  0  0  0  0  0
    2.1150   42.8037   50.5995 H   0  0  0  0  0  0  0  0  0  0  0  0
    4.4240   39.9579   47.8015 H   0  0  0  0  0  0  0  0  0  0  0  0
    6.7400   40.3429   48.2956 H   0  0  0  0  0  0  0  0  0  0  0  0
    6.9165   43.6492   51.6639 H   0  0  0  0  0  0  0  0  0  0  0  0
  1  2  2  0
  2  3  1  0
  3  4  1  0
  4  5  1  0
  5  6  1  0
  6  7  1  0
  7  8  1  0
  8  9  1  0
  9 10  1  0
  2 11  1  0
 11 12  1  0
 12 13  2  0
 13 14  1  0
 14 15  2  0
 15 16  1  0
 16 17  2  0
 17 18  1  0
 18 19  1  0
 19 20  2  0
 19 21  1  0
 21 22  2  0
 10  6  1  0
 22 12  1  0
 21 15  1  0
  3 23  1  0
  3 24  1  0
  5 25  1  0
  5 26  1  0
  6 27  1  0
  7 28  1  0
  7 29  1  0
  8 30  1  0
  8 31  1  0
  9 32  1  0
  9 33  1  0
 11 34  1  0
 13 35  1  0
 14 36  1  0
 17 37  1  0
 18 38  1  0
 22 39  1  0
M  END
>  <meeko>  (124) 
{"is_sidechain": false}

>  <CID>  (124) 
Z1192499493

>  <pose_index>  (124) 
6

>  <docking_score>  (124) 
-7.458

>  <rmsd_to_best_selected>  (124) 
1.8598929604509309

>  <MWT>  (124) 
303.3179999999997

>  <TPSA>  (124) 
93.31

>  <logP>  (124) 
1.0572

>  <HBD>  (124) 
2

>  <HBA>  (124) 
5

>  <SMILES>  (124) 
[H]c1c(N([H])C(=O)C([H])([H])OC([H])([H])C2([H])OC([H])([H])C([H])([H])C2([H])[H])c([H])c2c(=O)n([H])c([H])nc2c1[H]

$$$$
Z1192499493_pose8
     RDKit          3D

 39 41  0  0  0  0  0  0  0  0999 V2000
    4.6876   44.6452   54.8505 O   0  0  0  0  0  0  0  0  0  0  0  0
    5.8578   44.9306   54.6111 C   0  0  0  0  0  0  0  0  0  0  0  0
    6.5842   46.0181   55.4118 C   0  0  0  0  0  0  0  0  0  0  0  0
    6.3153   47.3154   54.8896 O   0  0  0  0  0  0  0  0  0  0  0  0
    7.4710   48.0469   54.4743 C   0  0  0  0  0  0  0  0  0  0  0  0
    7.7734   48.0402   52.9675 C   0  0  0  0  0  0  0  0  0  0  0  0
    6.6138   47.6809   52.0501 C   0  0  0  0  0  0  0  0  0  0  0  0
    7.3427   47.2110   50.8154 C   0  0  0  0  0  0  0  0  0  0  0  0
    8.5400   46.4924   51.4034 C   0  0  0  0  0  0  0  0  0  0  0  0
    8.8524   47.1474   52.6409 O   0  0  0  0  0  0  0  0  0  0  0  0
    6.6673   44.3760   53.6365 N   0  0  0  0  0  0  0  0  0  0  0  0
    6.3557   43.3690   52.7095 C   0  0  0  0  0  0  0  0  0  0  0  0
    6.3668   42.0040   53.0088 C   0  0  0  0  0  0  0  0  0  0  0  0
    6.0435   41.0545   52.0292 C   0  0  0  0  0  0  0  0  0  0  0  0
    5.7024   41.4514   50.7382 C   0  0  0  0  0  0  0  0  0  0  0  0
    5.3840   40.4712   49.7814 N   0  0  0  0  0  0  0  0  0  0  0  0
    5.0722   40.8760   48.5984 C   0  0  0  0  0  0  0  0  0  0  0  0
    5.0354   42.1874   48.2206 N   0  0  0  0  0  0  0  0  0  0  0  0
    5.3317   43.2150   49.0766 C   0  0  0  0  0  0  0  0  0  0  0  0
    5.2988   44.3885   48.7224 O   0  0  0  0  0  0  0  0  0  0  0  0
    5.6924   42.8173   50.4476 C   0  0  0  0  0  0  0  0  0  0  0  0
    6.0132   43.7758   51.4168 C   0  0  0  0  0  0  0  0  0  0  0  0
    6.2478   45.9769   56.4583 H   0  0  0  0  0  0  0  0  0  0  0  0
    7.6665   45.8345   55.3419 H   0  0  0  0  0  0  0  0  0  0  0  0
    7.3352   49.0934   54.7847 H   0  0  0  0  0  0  0  0  0  0  0  0
    8.3253   47.5411   54.9481 H   0  0  0  0  0  0  0  0  0  0  0  0
    8.0309   49.0934   52.7815 H   0  0  0  0  0  0  0  0  0  0  0  0
    5.9941   46.8803   52.4802 H   0  0  0  0  0  0  0  0  0  0  0  0
    5.9116   48.5081   51.8692 H   0  0  0  0  0  0  0  0  0  0  0  0
    6.7196   46.5268   50.2208 H   0  0  0  0  0  0  0  0  0  0  0  0
    7.6116   48.0244   50.1255 H   0  0  0  0  0  0  0  0  0  0  0  0
    8.2948   45.4357   51.5860 H   0  0  0  0  0  0  0  0  0  0  0  0
    9.3963   46.5244   50.7137 H   0  0  0  0  0  0  0  0  0  0  0  0
    7.6084   44.7659   53.6207 H   0  0  0  0  0  0  0  0  0  0  0  0
    6.6317   41.6711   54.0232 H   0  0  0  0  0  0  0  0  0  0  0  0
    6.0595   39.9843   52.2829 H   0  0  0  0  0  0  0  0  0  0  0  0
    4.8194   40.1160   47.8444 H   0  0  0  0  0  0  0  0  0  0  0  0
    4.7854   42.4470   47.2773 H   0  0  0  0  0  0  0  0  0  0  0  0
    5.9959   44.8456   51.1616 H   0  0  0  0  0  0  0  0  0  0  0  0
  1  2  2  0
  2  3  1  0
  3  4  1  0
  4  5  1  0
  5  6  1  0
  6  7  1  0
  7  8  1  0
  8  9  1  0
  9 10  1  0
  2 11  1  0
 11 12  1  0
 12 13  2  0
 13 14  1  0
 14 15  2  0
 15 16  1  0
 16 17  2  0
 17 18  1  0
 18 19  1  0
 19 20  2  0
 19 21  1  0
 21 22  2  0
 10  6  1  0
 22 12  1  0
 21 15  1  0
  3 23  1  0
  3 24  1  0
  5 25  1  0
  5 26  1  0
  6 27  1  0
  7 28  1  0
  7 29  1  0
  8 30  1  0
  8 31  1  0
  9 32  1  0
  9 33  1  0
 11 34  1  0
 13 35  1  0
 14 36  1  0
 17 37  1  0
 18 38  1  0
 22 39  1  0
M  END
>  <meeko>  (125) 
{"is_sidechain": false}

>  <CID>  (125) 
Z1192499493

>  <pose_index>  (125) 
8

>  <docking_score>  (125) 
-7.402

>  <rmsd_to_best_selected>  (125) 
1.4656220974432592

>  <MWT>  (125) 
303.3179999999997

>  <TPSA>  (125) 
93.31

>  <logP>  (125) 
1.0572

>  <HBD>  (125) 
2

>  <HBA>  (125) 
5

>  <SMILES>  (125) 
[H]c1c(N([H])C(=O)C([H])([H])OC([H])([H])C2([H])OC([H])([H])C([H])([H])C2([H])[H])c([H])c2c(=O)n([H])c([H])nc2c1[H]

$$$$
Z1198960055_pose4
     RDKit          3D

 42 45  0  0  0  0  0  0  0  0999 V2000
   -1.6314   44.2444   54.4987 O   0  0  0  0  0  0  0  0  0  0  0  0
   -0.5481   44.7856   54.3545 C   0  0  0  0  0  0  0  0  0  0  0  0
    0.6484   44.2408   53.5643 C   0  0  0  0  0  0  0  0  0  0  0  0
    1.6675   45.3242   53.7503 C   0  0  0  0  0  0  0  0  0  0  0  0
    2.9645   45.4158   53.2759 C   0  0  0  0  0  0  0  0  0  0  0  0
    3.7203   46.5559   53.6006 C   0  0  0  0  0  0  0  0  0  0  0  0
    5.0369   46.6001   53.1009 N   0  0  0  0  0  0  0  0  0  0  0  0
    6.1871   46.0809   53.6615 C   0  0  0  0  0  0  0  0  0  0  0  0
    6.2570   45.5015   54.7398 O   0  0  0  0  0  0  0  0  0  0  0  0
    7.4516   46.2649   52.8680 C   0  0  0  0  0  0  0  0  0  0  0  0
    7.9605   47.5715   52.7701 C   0  0  0  0  0  0  0  0  0  0  0  0
    9.1283   47.8370   52.0534 C   0  0  0  0  0  0  0  0  0  0  0  0
    9.8033   46.8005   51.4186 C   0  0  0  0  0  0  0  0  0  0  0  0
    9.3195   45.4955   51.5084 C   0  0  0  0  0  0  0  0  0  0  0  0
    8.1609   45.2190   52.2475 C   0  0  0  0  0  0  0  0  0  0  0  0
    7.6763   43.9359   52.3143 O   0  0  0  0  0  0  0  0  0  0  0  0
    7.0275   43.5134   51.1083 C   0  0  0  0  0  0  0  0  0  0  0  0
    7.8028   42.3528   50.5606 C   0  0  0  0  0  0  0  0  0  0  0  0
    8.8019   42.5553   49.4495 C   0  0  0  0  0  0  0  0  0  0  0  0
    7.5159   41.8205   49.1792 C   0  0  0  0  0  0  0  0  0  0  0  0
    3.1492   47.5700   54.3943 C   0  0  0  0  0  0  0  0  0  0  0  0
    1.8352   47.4677   54.8704 C   0  0  0  0  0  0  0  0  0  0  0  0
    1.1252   46.3390   54.5327 C   0  0  0  0  0  0  0  0  0  0  0  0
   -0.1758   46.0166   54.8824 N   0  0  0  0  0  0  0  0  0  0  0  0
    1.0005   43.2856   53.9811 H   0  0  0  0  0  0  0  0  0  0  0  0
    0.4207   44.0237   52.5102 H   0  0  0  0  0  0  0  0  0  0  0  0
    3.3947   44.6137   52.6581 H   0  0  0  0  0  0  0  0  0  0  0  0
    5.1553   47.0637   52.2047 H   0  0  0  0  0  0  0  0  0  0  0  0
    7.4301   48.3977   53.2661 H   0  0  0  0  0  0  0  0  0  0  0  0
    9.5141   48.8652   51.9908 H   0  0  0  0  0  0  0  0  0  0  0  0
   10.7188   47.0096   50.8457 H   0  0  0  0  0  0  0  0  0  0  0  0
    9.8498   44.6790   50.9965 H   0  0  0  0  0  0  0  0  0  0  0  0
    5.9943   43.2052   51.3261 H   0  0  0  0  0  0  0  0  0  0  0  0
    6.9945   44.3356   50.3783 H   0  0  0  0  0  0  0  0  0  0  0  0
    7.8379   41.9175   51.5701 H   0  0  0  0  0  0  0  0  0  0  0  0
    8.9604   43.5592   49.0288 H   0  0  0  0  0  0  0  0  0  0  0  0
    9.8698   42.3293   49.3135 H   0  0  0  0  0  0  0  0  0  0  0  0
    6.7351   42.2877   48.5610 H   0  0  0  0  0  0  0  0  0  0  0  0
    7.2555   40.8357   48.7639 H   0  0  0  0  0  0  0  0  0  0  0  0
    3.7461   48.4592   54.6451 H   0  0  0  0  0  0  0  0  0  0  0  0
    1.3889   48.2593   55.4902 H   0  0  0  0  0  0  0  0  0  0  0  0
   -0.7927   46.5806   55.4472 H   0  0  0  0  0  0  0  0  0  0  0  0
  1  2  2  0
  2  3  1  0
  3  4  1  0
  4  5  2  0
  5  6  1  0
  6  7  1  0
  7  8  1  0
  8  9  2  0
  8 10  1  0
 10 11  2  0
 11 12  1  0
 12 13  2  0
 13 14  1  0
 14 15  2  0
 15 16  1  0
 16 17  1  0
 17 18  1  0
 18 19  1  0
 19 20  1  0
  6 21  2  0
 21 22  1  0
 22 23  2  0
 23 24  1  0
 24  2  1  0
 23  4  1  0
 15 10  1  0
 20 18  1  0
  3 25  1  0
  3 26  1  0
  5 27  1  0
  7 28  1  0
 11 29  1  0
 12 30  1  0
 13 31  1  0
 14 32  1  0
 17 33  1  0
 17 34  1  0
 18 35  1  0
 19 36  1  0
 19 37  1  0
 20 38  1  0
 20 39  1  0
 21 40  1  0
 22 41  1  0
 24 42  1  0
M  END
>  <meeko>  (126) 
{"is_sidechain": false}

>  <CID>  (126) 
Z1198960055

>  <pose_index>  (126) 
4

>  <docking_score>  (126) 
-8.909

>  <rmsd_to_best_selected>  (126) 
1.8679533461803104

>  <MWT>  (126) 
322.3639999999997

>  <TPSA>  (126) 
67.43

>  <logP>  (126) 
3.2223000000000015

>  <HBD>  (126) 
2

>  <HBA>  (126) 
3

>  <SMILES>  (126) 
[H]c1c([H])c([H])c(C(=O)N([H])c2c([H])c([H])c3c(c2[H])C([H])([H])C(=O)N3[H])c(OC([H])([H])C2([H])C([H])([H])C2([H])[H])c1[H]

$$$$
Z1198960055_pose2
     RDKit          3D

 42 45  0  0  0  0  0  0  0  0999 V2000
   -1.3345   43.9057   53.8227 O   0  0  0  0  0  0  0  0  0  0  0  0
   -0.2245   44.4094   53.8266 C   0  0  0  0  0  0  0  0  0  0  0  0
    1.0008   43.9269   53.0403 C   0  0  0  0  0  0  0  0  0  0  0  0
    2.0467   44.9209   53.4446 C   0  0  0  0  0  0  0  0  0  0  0  0
    3.3758   45.0173   53.0689 C   0  0  0  0  0  0  0  0  0  0  0  0
    4.1516   46.0607   53.6018 C   0  0  0  0  0  0  0  0  0  0  0  0
    5.4987   46.1132   53.1964 N   0  0  0  0  0  0  0  0  0  0  0  0
    6.1866   47.1707   52.6359 C   0  0  0  0  0  0  0  0  0  0  0  0
    5.7109   48.2677   52.3621 O   0  0  0  0  0  0  0  0  0  0  0  0
    7.6409   46.9296   52.3312 C   0  0  0  0  0  0  0  0  0  0  0  0
    8.5803   47.6162   53.1195 C   0  0  0  0  0  0  0  0  0  0  0  0
    9.9504   47.4553   52.9098 C   0  0  0  0  0  0  0  0  0  0  0  0
   10.4033   46.6091   51.9036 C   0  0  0  0  0  0  0  0  0  0  0  0
    9.4871   45.9126   51.1144 C   0  0  0  0  0  0  0  0  0  0  0  0
    8.1110   46.0514   51.3379 C   0  0  0  0  0  0  0  0  0  0  0  0
    7.2141   45.3800   50.5432 O   0  0  0  0  0  0  0  0  0  0  0  0
    7.7089   44.1211   50.0718 C   0  0  0  0  0  0  0  0  0  0  0  0
    6.5332   43.2065   49.9055 C   0  0  0  0  0  0  0  0  0  0  0  0
    5.5960   42.9470   51.0566 C   0  0  0  0  0  0  0  0  0  0  0  0
    6.5113   41.8544   50.5717 C   0  0  0  0  0  0  0  0  0  0  0  0
    3.5669   46.9773   54.4990 C   0  0  0  0  0  0  0  0  0  0  0  0
    2.2209   46.8711   54.8734 C   0  0  0  0  0  0  0  0  0  0  0  0
    1.4923   45.8383   54.3314 C   0  0  0  0  0  0  0  0  0  0  0  0
    0.1593   45.5324   54.5502 N   0  0  0  0  0  0  0  0  0  0  0  0
    1.2863   42.9058   53.3334 H   0  0  0  0  0  0  0  0  0  0  0  0
    0.8366   43.8755   51.9538 H   0  0  0  0  0  0  0  0  0  0  0  0
    3.8152   44.2923   52.3679 H   0  0  0  0  0  0  0  0  0  0  0  0
    6.0416   45.2666   53.3457 H   0  0  0  0  0  0  0  0  0  0  0  0
    8.2300   48.2911   53.9143 H   0  0  0  0  0  0  0  0  0  0  0  0
   10.6713   47.9971   53.5397 H   0  0  0  0  0  0  0  0  0  0  0  0
   11.4828   46.4889   51.7298 H   0  0  0  0  0  0  0  0  0  0  0  0
    9.8473   45.2511   50.3127 H   0  0  0  0  0  0  0  0  0  0  0  0
    8.2187   44.2560   49.1065 H   0  0  0  0  0  0  0  0  0  0  0  0
    8.4304   43.6974   50.7858 H   0  0  0  0  0  0  0  0  0  0  0  0
    6.4171   43.5665   48.8726 H   0  0  0  0  0  0  0  0  0  0  0  0
    5.7769   43.4238   52.0313 H   0  0  0  0  0  0  0  0  0  0  0  0
    4.5110   43.0405   51.2122 H   0  0  0  0  0  0  0  0  0  0  0  0
    7.3610   41.5332   51.1920 H   0  0  0  0  0  0  0  0  0  0  0  0
    6.3721   40.8194   50.2263 H   0  0  0  0  0  0  0  0  0  0  0  0
    4.1793   47.7917   54.9133 H   0  0  0  0  0  0  0  0  0  0  0  0
    1.7647   47.5862   55.5737 H   0  0  0  0  0  0  0  0  0  0  0  0
   -0.4718   46.0385   55.1520 H   0  0  0  0  0  0  0  0  0  0  0  0
  1  2  2  0
  2  3  1  0
  3  4  1  0
  4  5  2  0
  5  6  1  0
  6  7  1  0
  7  8  1  0
  8  9  2  0
  8 10  1  0
 10 11  2  0
 11 12  1  0
 12 13  2  0
 13 14  1  0
 14 15  2  0
 15 16  1  0
 16 17  1  0
 17 18  1  0
 18 19  1  0
 19 20  1  0
  6 21  2  0
 21 22  1  0
 22 23  2  0
 23 24  1  0
 24  2  1  0
 23  4  1  0
 15 10  1  0
 20 18  1  0
  3 25  1  0
  3 26  1  0
  5 27  1  0
  7 28  1  0
 11 29  1  0
 12 30  1  0
 13 31  1  0
 14 32  1  0
 17 33  1  0
 17 34  1  0
 18 35  1  0
 19 36  1  0
 19 37  1  0
 20 38  1  0
 20 39  1  0
 21 40  1  0
 22 41  1  0
 24 42  1  0
M  END
>  <meeko>  (127) 
{"is_sidechain": false}

>  <CID>  (127) 
Z1198960055

>  <pose_index>  (127) 
2

>  <docking_score>  (127) 
-9.188

>  <rmsd_to_best_selected>  (127) 
0.0

>  <MWT>  (127) 
322.3639999999997

>  <TPSA>  (127) 
67.43

>  <logP>  (127) 
3.2223000000000015

>  <HBD>  (127) 
2

>  <HBA>  (127) 
3

>  <SMILES>  (127) 
[H]c1c([H])c([H])c(C(=O)N([H])c2c([H])c([H])c3c(c2[H])C([H])([H])C(=O)N3[H])c(OC([H])([H])C2([H])C([H])([H])C2([H])[H])c1[H]

$$$$
Z1198960055_pose5
     RDKit          3D

 42 45  0  0  0  0  0  0  0  0999 V2000
   -1.2305   43.8387   53.5043 O   0  0  0  0  0  0  0  0  0  0  0  0
   -0.1235   44.3445   53.5767 C   0  0  0  0  0  0  0  0  0  0  0  0
    1.1427   43.8841   52.8440 C   0  0  0  0  0  0  0  0  0  0  0  0
    2.1624   44.8721   53.3257 C   0  0  0  0  0  0  0  0  0  0  0  0
    3.5080   44.9808   53.0224 C   0  0  0  0  0  0  0  0  0  0  0  0
    4.2512   46.0131   53.6193 C   0  0  0  0  0  0  0  0  0  0  0  0
    5.6175   46.0791   53.2854 N   0  0  0  0  0  0  0  0  0  0  0  0
    6.2229   46.8178   52.2880 C   0  0  0  0  0  0  0  0  0  0  0  0
    5.6451   47.5400   51.4823 O   0  0  0  0  0  0  0  0  0  0  0  0
    7.7201   46.7023   52.1939 C   0  0  0  0  0  0  0  0  0  0  0  0
    8.4301   47.8654   51.8509 C   0  0  0  0  0  0  0  0  0  0  0  0
    9.8216   47.8525   51.7387 C   0  0  0  0  0  0  0  0  0  0  0  0
   10.5245   46.6731   51.9639 C   0  0  0  0  0  0  0  0  0  0  0  0
    9.8391   45.5089   52.3118 C   0  0  0  0  0  0  0  0  0  0  0  0
    8.4448   45.5228   52.4497 C   0  0  0  0  0  0  0  0  0  0  0  0
    7.7739   44.3687   52.7715 O   0  0  0  0  0  0  0  0  0  0  0  0
    7.6880   43.4423   51.6807 C   0  0  0  0  0  0  0  0  0  0  0  0
    6.2362   43.2499   51.3636 C   0  0  0  0  0  0  0  0  0  0  0  0
    5.8132   42.3842   50.2050 C   0  0  0  0  0  0  0  0  0  0  0  0
    5.6289   43.8753   50.1340 C   0  0  0  0  0  0  0  0  0  0  0  0
    3.6172   46.9074   54.5056 C   0  0  0  0  0  0  0  0  0  0  0  0
    2.2542   46.7876   54.8078 C   0  0  0  0  0  0  0  0  0  0  0  0
    1.5586   45.7660   54.2045 C   0  0  0  0  0  0  0  0  0  0  0  0
    0.2171   45.4517   54.3459 N   0  0  0  0  0  0  0  0  0  0  0  0
    1.4168   42.8572   53.1277 H   0  0  0  0  0  0  0  0  0  0  0  0
    1.0353   43.8575   51.7496 H   0  0  0  0  0  0  0  0  0  0  0  0
    3.9860   44.2737   52.3284 H   0  0  0  0  0  0  0  0  0  0  0  0
    6.2428   45.5206   53.8596 H   0  0  0  0  0  0  0  0  0  0  0  0
    7.8809   48.8008   51.6681 H   0  0  0  0  0  0  0  0  0  0  0  0
   10.3614   48.7733   51.4726 H   0  0  0  0  0  0  0  0  0  0  0  0
   11.6202   46.6586   51.8677 H   0  0  0  0  0  0  0  0  0  0  0  0
   10.3962   44.5752   52.4788 H   0  0  0  0  0  0  0  0  0  0  0  0
    8.2133   43.8466   50.8029 H   0  0  0  0  0  0  0  0  0  0  0  0
    8.1551   42.4835   51.9501 H   0  0  0  0  0  0  0  0  0  0  0  0
    6.0126   43.2744   52.4404 H   0  0  0  0  0  0  0  0  0  0  0  0
    6.5732   41.8938   49.5790 H   0  0  0  0  0  0  0  0  0  0  0  0
    5.1526   41.5127   50.0864 H   0  0  0  0  0  0  0  0  0  0  0  0
    6.2541   44.4750   49.4562 H   0  0  0  0  0  0  0  0  0  0  0  0
    4.7778   44.5453   49.9421 H   0  0  0  0  0  0  0  0  0  0  0  0
    4.2036   47.7147   54.9687 H   0  0  0  0  0  0  0  0  0  0  0  0
    1.7595   47.4839   55.5009 H   0  0  0  0  0  0  0  0  0  0  0  0
   -0.4461   45.9411   54.9269 H   0  0  0  0  0  0  0  0  0  0  0  0
  1  2  2  0
  2  3  1  0
  3  4  1  0
  4  5  2  0
  5  6  1  0
  6  7  1  0
  7  8  1  0
  8  9  2  0
  8 10  1  0
 10 11  2  0
 11 12  1  0
 12 13  2  0
 13 14  1  0
 14 15  2  0
 15 16  1  0
 16 17  1  0
 17 18  1  0
 18 19  1  0
 19 20  1  0
  6 21  2  0
 21 22  1  0
 22 23  2  0
 23 24  1  0
 24  2  1  0
 23  4  1  0
 15 10  1  0
 20 18  1  0
  3 25  1  0
  3 26  1  0
  5 27  1  0
  7 28  1  0
 11 29  1  0
 12 30  1  0
 13 31  1  0
 14 32  1  0
 17 33  1  0
 17 34  1  0
 18 35  1  0
 19 36  1  0
 19 37  1  0
 20 38  1  0
 20 39  1  0
 21 40  1  0
 22 41  1  0
 24 42  1  0
M  END
>  <meeko>  (128) 
{"is_sidechain": false}

>  <CID>  (128) 
Z1198960055

>  <pose_index>  (128) 
5

>  <docking_score>  (128) 
-8.503

>  <rmsd_to_best_selected>  (128) 
1.3208002214937486

>  <MWT>  (128) 
322.3639999999997

>  <TPSA>  (128) 
67.43

>  <logP>  (128) 
3.2223000000000015

>  <HBD>  (128) 
2

>  <HBA>  (128) 
3

>  <SMILES>  (128) 
[H]c1c([H])c([H])c(C(=O)N([H])c2c([H])c([H])c3c(c2[H])C([H])([H])C(=O)N3[H])c(OC([H])([H])C2([H])C([H])([H])C2([H])[H])c1[H]

$$$$
Z1198960055_pose7
     RDKit          3D

 42 45  0  0  0  0  0  0  0  0999 V2000
   -1.5312   44.7338   52.9465 O   0  0  0  0  0  0  0  0  0  0  0  0
   -0.3561   44.9712   53.1719 C   0  0  0  0  0  0  0  0  0  0  0  0
    0.8059   44.8628   52.1775 C   0  0  0  0  0  0  0  0  0  0  0  0
    1.9784   45.2685   53.0191 C   0  0  0  0  0  0  0  0  0  0  0  0
    3.3192   45.3679   52.6868 C   0  0  0  0  0  0  0  0  0  0  0  0
    4.2284   45.7775   53.6777 C   0  0  0  0  0  0  0  0  0  0  0  0
    5.5808   45.8579   53.2943 N   0  0  0  0  0  0  0  0  0  0  0  0
    6.3852   46.9771   53.2104 C   0  0  0  0  0  0  0  0  0  0  0  0
    6.0309   48.1295   53.4346 O   0  0  0  0  0  0  0  0  0  0  0  0
    7.8110   46.7384   52.7948 C   0  0  0  0  0  0  0  0  0  0  0  0
    8.8146   47.1470   53.6907 C   0  0  0  0  0  0  0  0  0  0  0  0
   10.1654   46.9666   53.3898 C   0  0  0  0  0  0  0  0  0  0  0  0
   10.5345   46.3801   52.1839 C   0  0  0  0  0  0  0  0  0  0  0  0
    9.5548   45.9625   51.2830 C   0  0  0  0  0  0  0  0  0  0  0  0
    8.1965   46.1174   51.5916 C   0  0  0  0  0  0  0  0  0  0  0  0
    7.2363   45.7245   50.6918 O   0  0  0  0  0  0  0  0  0  0  0  0
    7.5023   44.4424   50.1069 C   0  0  0  0  0  0  0  0  0  0  0  0
    6.7344   43.4200   50.8901 C   0  0  0  0  0  0  0  0  0  0  0  0
    6.3978   42.0838   50.2802 C   0  0  0  0  0  0  0  0  0  0  0  0
    5.3076   43.0916   50.5323 C   0  0  0  0  0  0  0  0  0  0  0  0
    3.7623   46.0749   54.9737 C   0  0  0  0  0  0  0  0  0  0  0  0
    2.4034   45.9700   55.2993 C   0  0  0  0  0  0  0  0  0  0  0  0
    1.5422   45.5664   54.3051 C   0  0  0  0  0  0  0  0  0  0  0  0
    0.1715   45.3915   54.3877 N   0  0  0  0  0  0  0  0  0  0  0  0
    0.9184   43.8338   51.8055 H   0  0  0  0  0  0  0  0  0  0  0  0
    0.6750   45.4780   51.2751 H   0  0  0  0  0  0  0  0  0  0  0  0
    3.6651   45.1315   51.6697 H   0  0  0  0  0  0  0  0  0  0  0  0
    6.0297   44.9761   53.0611 H   0  0  0  0  0  0  0  0  0  0  0  0
    8.5306   47.6164   54.6441 H   0  0  0  0  0  0  0  0  0  0  0  0
   10.9368   47.2877   54.1051 H   0  0  0  0  0  0  0  0  0  0  0  0
   11.5988   46.2456   51.9406 H   0  0  0  0  0  0  0  0  0  0  0  0
    9.8499   45.5092   50.3252 H   0  0  0  0  0  0  0  0  0  0  0  0
    7.1754   44.4339   49.0567 H   0  0  0  0  0  0  0  0  0  0  0  0
    8.5795   44.2210   50.1336 H   0  0  0  0  0  0  0  0  0  0  0  0
    7.2504   43.7516   51.8032 H   0  0  0  0  0  0  0  0  0  0  0  0
    6.7083   41.8557   49.2499 H   0  0  0  0  0  0  0  0  0  0  0  0
    6.5677   41.0346   50.5639 H   0  0  0  0  0  0  0  0  0  0  0  0
    4.8219   43.5997   49.6861 H   0  0  0  0  0  0  0  0  0  0  0  0
    4.3515   43.0835   51.0763 H   0  0  0  0  0  0  0  0  0  0  0  0
    4.4787   46.3955   55.7444 H   0  0  0  0  0  0  0  0  0  0  0  0
    2.0391   46.2014   56.3111 H   0  0  0  0  0  0  0  0  0  0  0  0
   -0.3947   45.5382   55.2100 H   0  0  0  0  0  0  0  0  0  0  0  0
  1  2  2  0
  2  3  1  0
  3  4  1  0
  4  5  2  0
  5  6  1  0
  6  7  1  0
  7  8  1  0
  8  9  2  0
  8 10  1  0
 10 11  2  0
 11 12  1  0
 12 13  2  0
 13 14  1  0
 14 15  2  0
 15 16  1  0
 16 17  1  0
 17 18  1  0
 18 19  1  0
 19 20  1  0
  6 21  2  0
 21 22  1  0
 22 23  2  0
 23 24  1  0
 24  2  1  0
 23  4  1  0
 15 10  1  0
 20 18  1  0
  3 25  1  0
  3 26  1  0
  5 27  1  0
  7 28  1  0
 11 29  1  0
 12 30  1  0
 13 31  1  0
 14 32  1  0
 17 33  1  0
 17 34  1  0
 18 35  1  0
 19 36  1  0
 19 37  1  0
 20 38  1  0
 20 39  1  0
 21 40  1  0
 22 41  1  0
 24 42  1  0
M  END
>  <meeko>  (129) 
{"is_sidechain": false}

>  <CID>  (129) 
Z1198960055

>  <pose_index>  (129) 
7

>  <docking_score>  (129) 
-8.053

>  <rmsd_to_best_selected>  (129) 
0.8104164971214891

>  <MWT>  (129) 
322.3639999999997

>  <TPSA>  (129) 
67.43

>  <logP>  (129) 
3.2223000000000015

>  <HBD>  (129) 
2

>  <HBA>  (129) 
3

>  <SMILES>  (129) 
[H]c1c([H])c([H])c(C(=O)N([H])c2c([H])c([H])c3c(c2[H])C([H])([H])C(=O)N3[H])c(OC([H])([H])C2([H])C([H])([H])C2([H])[H])c1[H]

$$$$
Z1198960055_pose8
     RDKit          3D

 42 45  0  0  0  0  0  0  0  0999 V2000
   -1.3904   44.3955   53.0201 O   0  0  0  0  0  0  0  0  0  0  0  0
   -0.2452   44.7609   53.2225 C   0  0  0  0  0  0  0  0  0  0  0  0
    0.9161   44.7248   52.2220 C   0  0  0  0  0  0  0  0  0  0  0  0
    2.0465   45.2853   53.0310 C   0  0  0  0  0  0  0  0  0  0  0  0
    3.3678   45.5049   52.6807 C   0  0  0  0  0  0  0  0  0  0  0  0
    4.2368   46.0498   53.6417 C   0  0  0  0  0  0  0  0  0  0  0  0
    5.5723   46.2483   53.2406 N   0  0  0  0  0  0  0  0  0  0  0  0
    6.7061   45.5898   53.6730 C   0  0  0  0  0  0  0  0  0  0  0  0
    6.7403   44.7123   54.5298 O   0  0  0  0  0  0  0  0  0  0  0  0
    8.0007   46.0099   53.0319 C   0  0  0  0  0  0  0  0  0  0  0  0
    8.4116   47.3390   53.2316 C   0  0  0  0  0  0  0  0  0  0  0  0
    9.5980   47.8171   52.6752 C   0  0  0  0  0  0  0  0  0  0  0  0
   10.3912   46.9745   51.9027 C   0  0  0  0  0  0  0  0  0  0  0  0
   10.0046   45.6500   51.6967 C   0  0  0  0  0  0  0  0  0  0  0  0
    8.8270   45.1576   52.2747 C   0  0  0  0  0  0  0  0  0  0  0  0
    8.4408   43.8594   52.0511 O   0  0  0  0  0  0  0  0  0  0  0  0
    7.8671   43.6564   50.7532 C   0  0  0  0  0  0  0  0  0  0  0  0
    6.4428   43.2319   50.9493 C   0  0  0  0  0  0  0  0  0  0  0  0
    5.7046   42.4987   49.8590 C   0  0  0  0  0  0  0  0  0  0  0  0
    5.3263   43.9153   50.2024 C   0  0  0  0  0  0  0  0  0  0  0  0
    3.7510   46.3561   54.9283 C   0  0  0  0  0  0  0  0  0  0  0  0
    2.4124   46.1297   55.2738 C   0  0  0  0  0  0  0  0  0  0  0  0
    1.5900   45.5959   54.3081 C   0  0  0  0  0  0  0  0  0  0  0  0
    0.2445   45.2873   54.4123 N   0  0  0  0  0  0  0  0  0  0  0  0
    1.1303   43.6962   51.8960 H   0  0  0  0  0  0  0  0  0  0  0  0
    0.7179   45.2814   51.2941 H   0  0  0  0  0  0  0  0  0  0  0  0
    3.7298   45.2582   51.6717 H   0  0  0  0  0  0  0  0  0  0  0  0
    5.7209   46.9607   52.5310 H   0  0  0  0  0  0  0  0  0  0  0  0
    7.7874   48.0132   53.8365 H   0  0  0  0  0  0  0  0  0  0  0  0
    9.9061   48.8590   52.8468 H   0  0  0  0  0  0  0  0  0  0  0  0
   11.3222   47.3522   51.4550 H   0  0  0  0  0  0  0  0  0  0  0  0
   10.6278   44.9885   51.0771 H   0  0  0  0  0  0  0  0  0  0  0  0
    7.9037   44.5922   50.1762 H   0  0  0  0  0  0  0  0  0  0  0  0
    8.4266   42.8883   50.1991 H   0  0  0  0  0  0  0  0  0  0  0  0
    6.6630   43.0356   52.0090 H   0  0  0  0  0  0  0  0  0  0  0  0
    6.2077   42.2796   48.9056 H   0  0  0  0  0  0  0  0  0  0  0  0
    5.1633   41.5435   49.7930 H   0  0  0  0  0  0  0  0  0  0  0  0
    5.5531   44.7308   49.4998 H   0  0  0  0  0  0  0  0  0  0  0  0
    4.3942   44.4231   50.4910 H   0  0  0  0  0  0  0  0  0  0  0  0
    4.4363   46.7814   55.6763 H   0  0  0  0  0  0  0  0  0  0  0  0
    2.0333   46.3694   56.2783 H   0  0  0  0  0  0  0  0  0  0  0  0
   -0.3279   45.4127   55.2333 H   0  0  0  0  0  0  0  0  0  0  0  0
  1  2  2  0
  2  3  1  0
  3  4  1  0
  4  5  2  0
  5  6  1  0
  6  7  1  0
  7  8  1  0
  8  9  2  0
  8 10  1  0
 10 11  2  0
 11 12  1  0
 12 13  2  0
 13 14  1  0
 14 15  2  0
 15 16  1  0
 16 17  1  0
 17 18  1  0
 18 19  1  0
 19 20  1  0
  6 21  2  0
 21 22  1  0
 22 23  2  0
 23 24  1  0
 24  2  1  0
 23  4  1  0
 15 10  1  0
 20 18  1  0
  3 25  1  0
  3 26  1  0
  5 27  1  0
  7 28  1  0
 11 29  1  0
 12 30  1  0
 13 31  1  0
 14 32  1  0
 17 33  1  0
 17 34  1  0
 18 35  1  0
 19 36  1  0
 19 37  1  0
 20 38  1  0
 20 39  1  0
 21 40  1  0
 22 41  1  0
 24 42  1  0
M  END
>  <meeko>  (130) 
{"is_sidechain": false}

>  <CID>  (130) 
Z1198960055

>  <pose_index>  (130) 
8

>  <docking_score>  (130) 
-7.974

>  <rmsd_to_best_selected>  (130) 
1.3883945347965758

>  <MWT>  (130) 
322.3639999999997

>  <TPSA>  (130) 
67.43

>  <logP>  (130) 
3.2223000000000015

>  <HBD>  (130) 
2

>  <HBA>  (130) 
3

>  <SMILES>  (130) 
[H]c1c([H])c([H])c(C(=O)N([H])c2c([H])c([H])c3c(c2[H])C([H])([H])C(=O)N3[H])c(OC([H])([H])C2([H])C([H])([H])C2([H])[H])c1[H]

$$$$
Z1198960055_pose9
     RDKit          3D

 42 45  0  0  0  0  0  0  0  0999 V2000
   -1.8654   45.0538   53.6297 O   0  0  0  0  0  0  0  0  0  0  0  0
   -0.6905   45.3442   53.7784 C   0  0  0  0  0  0  0  0  0  0  0  0
    0.4135   45.2610   52.7164 C   0  0  0  0  0  0  0  0  0  0  0  0
    1.6169   45.7326   53.4750 C   0  0  0  0  0  0  0  0  0  0  0  0
    2.9284   45.8807   53.0601 C   0  0  0  0  0  0  0  0  0  0  0  0
    3.8787   46.3482   53.9838 C   0  0  0  0  0  0  0  0  0  0  0  0
    5.2010   46.4758   53.5172 N   0  0  0  0  0  0  0  0  0  0  0  0
    6.2693   45.6250   53.7193 C   0  0  0  0  0  0  0  0  0  0  0  0
    6.2466   44.5973   54.3886 O   0  0  0  0  0  0  0  0  0  0  0  0
    7.5636   46.0183   53.0617 C   0  0  0  0  0  0  0  0  0  0  0  0
    8.2248   47.1466   53.5776 C   0  0  0  0  0  0  0  0  0  0  0  0
    9.4308   47.5866   53.0315 C   0  0  0  0  0  0  0  0  0  0  0  0
    9.9929   46.9078   51.9553 C   0  0  0  0  0  0  0  0  0  0  0  0
    9.3572   45.7826   51.4320 C   0  0  0  0  0  0  0  0  0  0  0  0
    8.1578   45.3212   51.9931 C   0  0  0  0  0  0  0  0  0  0  0  0
    7.5250   44.2255   51.4603 O   0  0  0  0  0  0  0  0  0  0  0  0
    8.3611   43.4625   50.5804 C   0  0  0  0  0  0  0  0  0  0  0  0
    7.6049   43.2598   49.3018 C   0  0  0  0  0  0  0  0  0  0  0  0
    6.2438   42.6116   49.3120 C   0  0  0  0  0  0  0  0  0  0  0  0
    7.4209   41.8777   48.7285 C   0  0  0  0  0  0  0  0  0  0  0  0
    3.4792   46.6546   55.3003 C   0  0  0  0  0  0  0  0  0  0  0  0
    2.1487   46.5013   55.7115 C   0  0  0  0  0  0  0  0  0  0  0  0
    1.2468   46.0412   54.7806 C   0  0  0  0  0  0  0  0  0  0  0  0
   -0.1081   45.8119   54.9499 N   0  0  0  0  0  0  0  0  0  0  0  0
    0.5463   44.2293   52.3588 H   0  0  0  0  0  0  0  0  0  0  0  0
    0.2022   45.8504   51.8119 H   0  0  0  0  0  0  0  0  0  0  0  0
    3.2214   45.6374   52.0281 H   0  0  0  0  0  0  0  0  0  0  0  0
    5.3935   47.2935   52.9447 H   0  0  0  0  0  0  0  0  0  0  0  0
    7.7841   47.6914   54.4255 H   0  0  0  0  0  0  0  0  0  0  0  0
    9.9364   48.4688   53.4513 H   0  0  0  0  0  0  0  0  0  0  0  0
   10.9389   47.2588   51.5170 H   0  0  0  0  0  0  0  0  0  0  0  0
    9.7989   45.2541   50.5744 H   0  0  0  0  0  0  0  0  0  0  0  0
    9.2947   44.0093   50.3817 H   0  0  0  0  0  0  0  0  0  0  0  0
    8.6197   42.4947   51.0347 H   0  0  0  0  0  0  0  0  0  0  0  0
    8.0130   44.2097   48.9260 H   0  0  0  0  0  0  0  0  0  0  0  0
    5.8021   42.2754   50.2616 H   0  0  0  0  0  0  0  0  0  0  0  0
    5.2453   42.8943   48.9473 H   0  0  0  0  0  0  0  0  0  0  0  0
    7.8392   41.0053   49.2517 H   0  0  0  0  0  0  0  0  0  0  0  0
    7.6386   41.4022   47.7608 H   0  0  0  0  0  0  0  0  0  0  0  0
    4.2268   47.0212   56.0191 H   0  0  0  0  0  0  0  0  0  0  0  0
    1.8373   46.7398   56.7392 H   0  0  0  0  0  0  0  0  0  0  0  0
   -0.6282   45.9532   55.8028 H   0  0  0  0  0  0  0  0  0  0  0  0
  1  2  2  0
  2  3  1  0
  3  4  1  0
  4  5  2  0
  5  6  1  0
  6  7  1  0
  7  8  1  0
  8  9  2  0
  8 10  1  0
 10 11  2  0
 11 12  1  0
 12 13  2  0
 13 14  1  0
 14 15  2  0
 15 16  1  0
 16 17  1  0
 17 18  1  0
 18 19  1  0
 19 20  1  0
  6 21  2  0
 21 22  1  0
 22 23  2  0
 23 24  1  0
 24  2  1  0
 23  4  1  0
 15 10  1  0
 20 18  1  0
  3 25  1  0
  3 26  1  0
  5 27  1  0
  7 28  1  0
 11 29  1  0
 12 30  1  0
 13 31  1  0
 14 32  1  0
 17 33  1  0
 17 34  1  0
 18 35  1  0
 19 36  1  0
 19 37  1  0
 20 38  1  0
 20 39  1  0
 21 40  1  0
 22 41  1  0
 24 42  1  0
M  END
>  <meeko>  (131) 
{"is_sidechain": false}

>  <CID>  (131) 
Z1198960055

>  <pose_index>  (131) 
9

>  <docking_score>  (131) 
-7.727

>  <rmsd_to_best_selected>  (131) 
1.3821130597564133

>  <MWT>  (131) 
322.3639999999997

>  <TPSA>  (131) 
67.43

>  <logP>  (131) 
3.2223000000000015

>  <HBD>  (131) 
2

>  <HBA>  (131) 
3

>  <SMILES>  (131) 
[H]c1c([H])c([H])c(C(=O)N([H])c2c([H])c([H])c3c(c2[H])C([H])([H])C(=O)N3[H])c(OC([H])([H])C2([H])C([H])([H])C2([H])[H])c1[H]

$$$$
Z1212723352_pose1
     RDKit          3D

 33 36  0  0  0  0  0  0  0  0999 V2000
    9.7590   47.0090   51.8270 Cl  0  0  0  0  0  0  0  0  0  0  0  0
    8.1230   46.5110   51.6420 C   0  0  0  0  0  0  0  0  0  0  0  0
    7.7800   45.6240   50.6250 C   0  0  0  0  0  0  0  0  0  0  0  0
    6.4500   45.2170   50.4750 C   0  0  0  0  0  0  0  0  0  0  0  0
    5.4530   45.6960   51.3410 C   0  0  0  0  0  0  0  0  0  0  0  0
    4.0620   45.2790   51.1950 C   0  0  0  0  0  0  0  0  0  0  0  0
    3.0740   46.0890   50.7780 N   0  0  0  0  0  0  0  0  0  0  0  0
    1.9440   45.2780   50.8030 O   0  0  0  0  0  0  0  0  0  0  0  0
    2.3560   44.0500   51.2340 C   0  0  0  0  0  0  0  0  0  0  0  0
    1.3050   42.9930   51.3260 C   0  0  0  0  0  0  0  0  0  0  0  0
    1.1330   42.3280   52.6260 N   0  0  0  0  0  0  0  0  0  0  0  0
    0.4770   43.0870   53.5940 C   0  0  0  0  0  0  0  0  0  0  0  0
   -0.8560   42.9950   53.7750 N   0  0  0  0  0  0  0  0  0  0  0  0
   -1.4420   43.7460   54.7340 C   0  0  0  0  0  0  0  0  0  0  0  0
   -0.8650   44.6160   55.5680 N   0  0  0  0  0  0  0  0  0  0  0  0
    0.4590   44.7160   55.3660 C   0  0  0  0  0  0  0  0  0  0  0  0
    1.3060   45.5400   56.0580 N   0  0  0  0  0  0  0  0  0  0  0  0
    2.4900   45.3340   55.5260 C   0  0  0  0  0  0  0  0  0  0  0  0
    2.4400   44.4060   54.5220 N   0  0  0  0  0  0  0  0  0  0  0  0
    1.1420   43.9860   54.4100 C   0  0  0  0  0  0  0  0  0  0  0  0
    3.6470   43.9920   51.4680 N   0  0  0  0  0  0  0  0  0  0  0  0
    5.8190   46.5910   52.3600 C   0  0  0  0  0  0  0  0  0  0  0  0
    7.1490   46.9970   52.5100 C   0  0  0  0  0  0  0  0  0  0  0  0
    8.5532   45.2441   49.9410 H   0  0  0  0  0  0  0  0  0  0  0  0
    6.1824   44.5152   49.6713 H   0  0  0  0  0  0  0  0  0  0  0  0
    0.3437   43.4583   51.0625 H   0  0  0  0  0  0  0  0  0  0  0  0
    1.6412   42.1986   50.6434 H   0  0  0  0  0  0  0  0  0  0  0  0
    0.7380   41.3980   52.5430 H   0  0  0  0  0  0  0  0  0  0  0  0
   -2.5301   43.6259   54.8413 H   0  0  0  0  0  0  0  0  0  0  0  0
    3.4090   45.8453   55.8486 H   0  0  0  0  0  0  0  0  0  0  0  0
    3.2160   44.1060   53.9520 H   0  0  0  0  0  0  0  0  0  0  0  0
    5.0515   46.9766   53.0472 H   0  0  0  0  0  0  0  0  0  0  0  0
    7.4246   47.6982   53.3114 H   0  0  0  0  0  0  0  0  0  0  0  0
  1  2  1  0
  2  3  2  0
  3  4  1  0
  4  5  2  0
  5  6  1  0
  6  7  2  0
  7  8  1  0
  8  9  1  0
  9 10  1  0
 10 11  1  0
 11 12  1  0
 12 13  2  0
 13 14  1  0
 14 15  2  0
 15 16  1  0
 16 17  1  0
 17 18  2  0
 18 19  1  0
 19 20  1  0
  9 21  2  0
  5 22  1  0
 22 23  2  0
 23  2  1  0
 21  6  1  0
 20 12  1  0
 20 16  2  0
  3 24  1  0
  4 25  1  0
 10 26  1  0
 10 27  1  0
 11 28  1  0
 14 29  1  0
 18 30  1  0
 19 31  1  0
 22 32  1  0
 23 33  1  0
M  END
>  <meeko>  (132) 
{"is_sidechain": false}

>  <CID>  (132) 
Z1212723352

>  <pose_index>  (132) 
1

>  <docking_score>  (132) 
-8.597

>  <rmsd_to_best_selected>  (132) 
0.0

>  <MWT>  (132) 
327.73499999999984

>  <TPSA>  (132) 
105.41000000000001

>  <logP>  (132) 
2.668399999999999

>  <HBD>  (132) 
2

>  <HBA>  (132) 
7

>  <SMILES>  (132) 
[H]c1nc(N([H])C([H])([H])c2nc(-c3c([H])c([H])c(Cl)c([H])c3[H])no2)c2c(n1)nc([H])n2[H]

$$$$
Z1212723352_pose2
     RDKit          3D

 33 36  0  0  0  0  0  0  0  0999 V2000
    9.1806   47.6812   51.8916 Cl  0  0  0  0  0  0  0  0  0  0  0  0
    7.8126   46.6384   51.8340 C   0  0  0  0  0  0  0  0  0  0  0  0
    7.2739   46.1364   53.0155 C   0  0  0  0  0  0  0  0  0  0  0  0
    6.1620   45.2895   52.9696 C   0  0  0  0  0  0  0  0  0  0  0  0
    5.5803   44.9377   51.7393 C   0  0  0  0  0  0  0  0  0  0  0  0
    4.4200   44.0563   51.6783 C   0  0  0  0  0  0  0  0  0  0  0  0
    4.4389   42.7619   52.0408 N   0  0  0  0  0  0  0  0  0  0  0  0
    3.1362   42.3315   51.8075 O   0  0  0  0  0  0  0  0  0  0  0  0
    2.4510   43.4072   51.3250 C   0  0  0  0  0  0  0  0  0  0  0  0
    1.0055   43.1885   51.0141 C   0  0  0  0  0  0  0  0  0  0  0  0
    0.0251   43.9180   51.8312 N   0  0  0  0  0  0  0  0  0  0  0  0
    0.2236   43.8308   53.2082 C   0  0  0  0  0  0  0  0  0  0  0  0
   -0.1944   42.7583   53.9114 N   0  0  0  0  0  0  0  0  0  0  0  0
    0.0322   42.7165   55.2436 C   0  0  0  0  0  0  0  0  0  0  0  0
    0.6356   43.6339   56.0052 N   0  0  0  0  0  0  0  0  0  0  0  0
    1.0291   44.7069   55.2995 C   0  0  0  0  0  0  0  0  0  0  0  0
    1.6572   45.8082   55.8167 N   0  0  0  0  0  0  0  0  0  0  0  0
    1.8378   46.6097   54.7912 C   0  0  0  0  0  0  0  0  0  0  0  0
    1.3553   46.0641   53.6324 N   0  0  0  0  0  0  0  0  0  0  0  0
    0.8405   44.8326   53.9355 C   0  0  0  0  0  0  0  0  0  0  0  0
    3.1856   44.4942   51.2456 N   0  0  0  0  0  0  0  0  0  0  0  0
    6.1396   45.4539   50.5594 C   0  0  0  0  0  0  0  0  0  0  0  0
    7.2509   46.3015   50.6055 C   0  0  0  0  0  0  0  0  0  0  0  0
    7.7220   46.4055   53.9833 H   0  0  0  0  0  0  0  0  0  0  0  0
    5.7386   44.8949   53.9051 H   0  0  0  0  0  0  0  0  0  0  0  0
    0.8446   43.4798   49.9657 H   0  0  0  0  0  0  0  0  0  0  0  0
    0.8252   42.1263   51.2358 H   0  0  0  0  0  0  0  0  0  0  0  0
   -0.1043   44.8759   51.5273 H   0  0  0  0  0  0  0  0  0  0  0  0
   -0.3241   41.8158   55.7650 H   0  0  0  0  0  0  0  0  0  0  0  0
    2.3176   47.5974   54.8561 H   0  0  0  0  0  0  0  0  0  0  0  0
    1.3574   46.5043   52.7236 H   0  0  0  0  0  0  0  0  0  0  0  0
    5.6984   45.1884   49.5873 H   0  0  0  0  0  0  0  0  0  0  0  0
    7.6797   46.7007   49.6745 H   0  0  0  0  0  0  0  0  0  0  0  0
  1  2  1  0
  2  3  2  0
  3  4  1  0
  4  5  2  0
  5  6  1  0
  6  7  2  0
  7  8  1  0
  8  9  1  0
  9 10  1  0
 10 11  1  0
 11 12  1  0
 12 13  2  0
 13 14  1  0
 14 15  2  0
 15 16  1  0
 16 17  1  0
 17 18  2  0
 18 19  1  0
 19 20  1  0
  9 21  2  0
  5 22  1  0
 22 23  2  0
 23  2  1  0
 21  6  1  0
 20 12  1  0
 20 16  2  0
  3 24  1  0
  4 25  1  0
 10 26  1  0
 10 27  1  0
 11 28  1  0
 14 29  1  0
 18 30  1  0
 19 31  1  0
 22 32  1  0
 23 33  1  0
M  END
>  <meeko>  (133) 
{"is_sidechain": false}

>  <CID>  (133) 
Z1212723352

>  <pose_index>  (133) 
2

>  <docking_score>  (133) 
-8.572

>  <rmsd_to_best_selected>  (133) 
1.8142193669767146

>  <MWT>  (133) 
327.73499999999984

>  <TPSA>  (133) 
105.41000000000001

>  <logP>  (133) 
2.668399999999999

>  <HBD>  (133) 
2

>  <HBA>  (133) 
7

>  <SMILES>  (133) 
[H]c1nc(N([H])C([H])([H])c2nc(-c3c([H])c([H])c(Cl)c([H])c3[H])no2)c2c(n1)nc([H])n2[H]

$$$$
Z1212723352_pose3
     RDKit          3D

 33 36  0  0  0  0  0  0  0  0999 V2000
    9.7656   46.9793   51.8117 Cl  0  0  0  0  0  0  0  0  0  0  0  0
    8.1217   46.4999   51.6458 C   0  0  0  0  0  0  0  0  0  0  0  0
    7.1568   47.0331   52.4952 C   0  0  0  0  0  0  0  0  0  0  0  0
    5.8188   46.6447   52.3606 C   0  0  0  0  0  0  0  0  0  0  0  0
    5.4388   45.7202   51.3739 C   0  0  0  0  0  0  0  0  0  0  0  0
    4.0468   45.3086   51.2218 C   0  0  0  0  0  0  0  0  0  0  0  0
    3.0572   46.1307   50.8316 N   0  0  0  0  0  0  0  0  0  0  0  0
    1.9266   45.3193   50.8385 O   0  0  0  0  0  0  0  0  0  0  0  0
    2.3395   44.0805   51.2333 C   0  0  0  0  0  0  0  0  0  0  0  0
    1.2892   43.0205   51.3001 C   0  0  0  0  0  0  0  0  0  0  0  0
    1.1124   42.3300   52.5872 N   0  0  0  0  0  0  0  0  0  0  0  0
    0.4739   43.0795   53.5745 C   0  0  0  0  0  0  0  0  0  0  0  0
   -0.8573   42.9899   53.7742 N   0  0  0  0  0  0  0  0  0  0  0  0
   -1.4258   43.7296   54.7519 C   0  0  0  0  0  0  0  0  0  0  0  0
   -0.8318   44.5864   55.5882 N   0  0  0  0  0  0  0  0  0  0  0  0
    0.4892   44.6848   55.3675 C   0  0  0  0  0  0  0  0  0  0  0  0
    1.3503   45.4961   56.0578 N   0  0  0  0  0  0  0  0  0  0  0  0
    2.5256   45.2923   55.5050 C   0  0  0  0  0  0  0  0  0  0  0  0
    2.4553   44.3786   54.4897 N   0  0  0  0  0  0  0  0  0  0  0  0
    1.1547   43.9645   54.3910 C   0  0  0  0  0  0  0  0  0  0  0  0
    3.6325   44.0149   51.4612 N   0  0  0  0  0  0  0  0  0  0  0  0
    6.4277   45.1941   50.5273 C   0  0  0  0  0  0  0  0  0  0  0  0
    7.7647   45.5825   50.6618 C   0  0  0  0  0  0  0  0  0  0  0  0
    7.4450   47.7581   53.2706 H   0  0  0  0  0  0  0  0  0  0  0  0
    5.0582   47.0672   53.0337 H   0  0  0  0  0  0  0  0  0  0  0  0
    0.3284   43.4896   51.0415 H   0  0  0  0  0  0  0  0  0  0  0  0
    1.6291   42.2398   50.6037 H   0  0  0  0  0  0  0  0  0  0  0  0
    0.7013   41.4095   52.4847 H   0  0  0  0  0  0  0  0  0  0  0  0
   -2.5126   43.6118   54.8748 H   0  0  0  0  0  0  0  0  0  0  0  0
    3.4518   45.7950   55.8204 H   0  0  0  0  0  0  0  0  0  0  0  0
    3.2216   44.0825   53.9034 H   0  0  0  0  0  0  0  0  0  0  0  0
    6.1479   44.4684   49.7495 H   0  0  0  0  0  0  0  0  0  0  0  0
    8.5310   45.1645   49.9925 H   0  0  0  0  0  0  0  0  0  0  0  0
  1  2  1  0
  2  3  2  0
  3  4  1  0
  4  5  2  0
  5  6  1  0
  6  7  2  0
  7  8  1  0
  8  9  1  0
  9 10  1  0
 10 11  1  0
 11 12  1  0
 12 13  2  0
 13 14  1  0
 14 15  2  0
 15 16  1  0
 16 17  1  0
 17 18  2  0
 18 19  1  0
 19 20  1  0
  9 21  2  0
  5 22  1  0
 22 23  2  0
 23  2  1  0
 21  6  1  0
 20 12  1  0
 20 16  2  0
  3 24  1  0
  4 25  1  0
 10 26  1  0
 10 27  1  0
 11 28  1  0
 14 29  1  0
 18 30  1  0
 19 31  1  0
 22 32  1  0
 23 33  1  0
M  END
>  <meeko>  (134) 
{"is_sidechain": false}

>  <CID>  (134) 
Z1212723352

>  <pose_index>  (134) 
3

>  <docking_score>  (134) 
-8.568

>  <rmsd_to_best_selected>  (134) 
0.05075304650514123

>  <MWT>  (134) 
327.73499999999984

>  <TPSA>  (134) 
105.41000000000001

>  <logP>  (134) 
2.668399999999999

>  <HBD>  (134) 
2

>  <HBA>  (134) 
7

>  <SMILES>  (134) 
[H]c1nc(N([H])C([H])([H])c2nc(-c3c([H])c([H])c(Cl)c([H])c3[H])no2)c2c(n1)nc([H])n2[H]

$$$$
Z1212723352_pose4
     RDKit          3D

 33 36  0  0  0  0  0  0  0  0999 V2000
    9.2086   48.0811   51.8927 Cl  0  0  0  0  0  0  0  0  0  0  0  0
    7.8671   47.0326   51.6430 C   0  0  0  0  0  0  0  0  0  0  0  0
    7.6091   46.5301   50.3699 C   0  0  0  0  0  0  0  0  0  0  0  0
    6.5196   45.6775   50.1665 C   0  0  0  0  0  0  0  0  0  0  0  0
    5.6803   45.3193   51.2357 C   0  0  0  0  0  0  0  0  0  0  0  0
    4.5418   44.4283   51.0356 C   0  0  0  0  0  0  0  0  0  0  0  0
    4.5945   43.2881   50.3264 N   0  0  0  0  0  0  0  0  0  0  0  0
    3.2974   42.7882   50.4013 O   0  0  0  0  0  0  0  0  0  0  0  0
    2.5815   43.6753   51.1507 C   0  0  0  0  0  0  0  0  0  0  0  0
    1.1461   43.3374   51.3866 C   0  0  0  0  0  0  0  0  0  0  0  0
    0.8238   42.5859   52.6093 N   0  0  0  0  0  0  0  0  0  0  0  0
    0.2552   43.3426   53.6320 C   0  0  0  0  0  0  0  0  0  0  0  0
   -1.0786   43.3608   53.8357 N   0  0  0  0  0  0  0  0  0  0  0  0
   -1.5796   44.1017   54.8472 C   0  0  0  0  0  0  0  0  0  0  0  0
   -0.9122   44.8644   55.7188 N   0  0  0  0  0  0  0  0  0  0  0  0
    0.4118   44.8571   55.4963 C   0  0  0  0  0  0  0  0  0  0  0  0
    1.3416   45.5585   56.2188 N   0  0  0  0  0  0  0  0  0  0  0  0
    2.4937   45.2785   55.6514 C   0  0  0  0  0  0  0  0  0  0  0  0
    2.3436   44.4210   54.5963 N   0  0  0  0  0  0  0  0  0  0  0  0
    1.0109   44.1273   54.4853 C   0  0  0  0  0  0  0  0  0  0  0  0
    3.3021   44.6875   51.5808 N   0  0  0  0  0  0  0  0  0  0  0  0
    5.9582   45.8368   52.5114 C   0  0  0  0  0  0  0  0  0  0  0  0
    7.0477   46.6894   52.7148 C   0  0  0  0  0  0  0  0  0  0  0  0
    8.2606   46.8032   49.5267 H   0  0  0  0  0  0  0  0  0  0  0  0
    6.3174   45.2831   49.1598 H   0  0  0  0  0  0  0  0  0  0  0  0
    0.5852   44.2830   51.4221 H   0  0  0  0  0  0  0  0  0  0  0  0
    0.8742   42.6641   50.5604 H   0  0  0  0  0  0  0  0  0  0  0  0
    0.2955   41.7417   52.4233 H   0  0  0  0  0  0  0  0  0  0  0  0
   -2.6724   44.0742   54.9693 H   0  0  0  0  0  0  0  0  0  0  0  0
    3.4605   45.6842   55.9843 H   0  0  0  0  0  0  0  0  0  0  0  0
    3.0807   44.0873   53.9935 H   0  0  0  0  0  0  0  0  0  0  0  0
    5.3117   45.5685   53.3600 H   0  0  0  0  0  0  0  0  0  0  0  0
    7.2566   47.0877   53.7186 H   0  0  0  0  0  0  0  0  0  0  0  0
  1  2  1  0
  2  3  2  0
  3  4  1  0
  4  5  2  0
  5  6  1  0
  6  7  2  0
  7  8  1  0
  8  9  1  0
  9 10  1  0
 10 11  1  0
 11 12  1  0
 12 13  2  0
 13 14  1  0
 14 15  2  0
 15 16  1  0
 16 17  1  0
 17 18  2  0
 18 19  1  0
 19 20  1  0
  9 21  2  0
  5 22  1  0
 22 23  2  0
 23  2  1  0
 21  6  1  0
 20 12  1  0
 20 16  2  0
  3 24  1  0
  4 25  1  0
 10 26  1  0
 10 27  1  0
 11 28  1  0
 14 29  1  0
 18 30  1  0
 19 31  1  0
 22 32  1  0
 23 33  1  0
M  END
>  <meeko>  (135) 
{"is_sidechain": false}

>  <CID>  (135) 
Z1212723352

>  <pose_index>  (135) 
4

>  <docking_score>  (135) 
-8.34

>  <rmsd_to_best_selected>  (135) 
1.0136391391442496

>  <MWT>  (135) 
327.73499999999984

>  <TPSA>  (135) 
105.41000000000001

>  <logP>  (135) 
2.668399999999999

>  <HBD>  (135) 
2

>  <HBA>  (135) 
7

>  <SMILES>  (135) 
[H]c1nc(N([H])C([H])([H])c2nc(-c3c([H])c([H])c(Cl)c([H])c3[H])no2)c2c(n1)nc([H])n2[H]

$$$$
Z1212723352_pose5
     RDKit          3D

 33 36  0  0  0  0  0  0  0  0999 V2000
    9.1234   47.7505   52.2464 Cl  0  0  0  0  0  0  0  0  0  0  0  0
    7.7678   46.7496   51.9000 C   0  0  0  0  0  0  0  0  0  0  0  0
    7.7186   46.0403   50.7027 C   0  0  0  0  0  0  0  0  0  0  0  0
    6.6161   45.2260   50.4204 C   0  0  0  0  0  0  0  0  0  0  0  0
    5.5557   45.1154   51.3347 C   0  0  0  0  0  0  0  0  0  0  0  0
    4.4014   44.2674   51.0523 C   0  0  0  0  0  0  0  0  0  0  0  0
    4.4523   43.1519   50.3050 N   0  0  0  0  0  0  0  0  0  0  0  0
    3.1393   42.6899   50.3042 O   0  0  0  0  0  0  0  0  0  0  0  0
    2.4170   43.5721   51.0536 C   0  0  0  0  0  0  0  0  0  0  0  0
    0.9620   43.2710   51.2126 C   0  0  0  0  0  0  0  0  0  0  0  0
    0.1615   44.2216   51.9979 N   0  0  0  0  0  0  0  0  0  0  0  0
    0.1312   43.9742   53.3695 C   0  0  0  0  0  0  0  0  0  0  0  0
   -0.7453   43.1016   53.9069 N   0  0  0  0  0  0  0  0  0  0  0  0
   -0.7270   42.8893   55.2410 C   0  0  0  0  0  0  0  0  0  0  0  0
    0.0702   43.4516   56.1541 N   0  0  0  0  0  0  0  0  0  0  0  0
    0.9244   44.3352   55.6123 C   0  0  0  0  0  0  0  0  0  0  0  0
    1.8455   45.0745   56.3070 N   0  0  0  0  0  0  0  0  0  0  0  0
    2.4450   45.8101   55.3976 C   0  0  0  0  0  0  0  0  0  0  0  0
    1.9499   45.5695   54.1453 N   0  0  0  0  0  0  0  0  0  0  0  0
    0.9774   44.6136   54.2592 C   0  0  0  0  0  0  0  0  0  0  0  0
    3.1451   44.5454   51.5515 N   0  0  0  0  0  0  0  0  0  0  0  0
    5.6241   45.8387   52.5364 C   0  0  0  0  0  0  0  0  0  0  0  0
    6.7258   46.6530   52.8181 C   0  0  0  0  0  0  0  0  0  0  0  0
    8.5445   46.1199   49.9805 H   0  0  0  0  0  0  0  0  0  0  0  0
    6.5796   44.6673   49.4735 H   0  0  0  0  0  0  0  0  0  0  0  0
    0.5224   43.2209   50.2055 H   0  0  0  0  0  0  0  0  0  0  0  0
    0.9275   42.3314   51.7836 H   0  0  0  0  0  0  0  0  0  0  0  0
    0.3865   45.1880   51.7924 H   0  0  0  0  0  0  0  0  0  0  0  0
   -1.4596   42.1631   55.6231 H   0  0  0  0  0  0  0  0  0  0  0  0
    3.2465   46.5310   55.6166 H   0  0  0  0  0  0  0  0  0  0  0  0
    2.2344   46.0328   53.2944 H   0  0  0  0  0  0  0  0  0  0  0  0
    4.8024   45.7641   53.2639 H   0  0  0  0  0  0  0  0  0  0  0  0
    6.7688   47.2155   53.7624 H   0  0  0  0  0  0  0  0  0  0  0  0
  1  2  1  0
  2  3  2  0
  3  4  1  0
  4  5  2  0
  5  6  1  0
  6  7  2  0
  7  8  1  0
  8  9  1  0
  9 10  1  0
 10 11  1  0
 11 12  1  0
 12 13  2  0
 13 14  1  0
 14 15  2  0
 15 16  1  0
 16 17  1  0
 17 18  2  0
 18 19  1  0
 19 20  1  0
  9 21  2  0
  5 22  1  0
 22 23  2  0
 23  2  1  0
 21  6  1  0
 20 12  1  0
 20 16  2  0
  3 24  1  0
  4 25  1  0
 10 26  1  0
 10 27  1  0
 11 28  1  0
 14 29  1  0
 18 30  1  0
 19 31  1  0
 22 32  1  0
 23 33  1  0
M  END
>  <meeko>  (136) 
{"is_sidechain": false}

>  <CID>  (136) 
Z1212723352

>  <pose_index>  (136) 
5

>  <docking_score>  (136) 
-8.324

>  <rmsd_to_best_selected>  (136) 
1.4378927893028715

>  <MWT>  (136) 
327.73499999999984

>  <TPSA>  (136) 
105.41000000000001

>  <logP>  (136) 
2.668399999999999

>  <HBD>  (136) 
2

>  <HBA>  (136) 
7

>  <SMILES>  (136) 
[H]c1nc(N([H])C([H])([H])c2nc(-c3c([H])c([H])c(Cl)c([H])c3[H])no2)c2c(n1)nc([H])n2[H]

$$$$
Z1212723352_pose7
     RDKit          3D

 33 36  0  0  0  0  0  0  0  0999 V2000
    9.0217   48.1171   51.9508 Cl  0  0  0  0  0  0  0  0  0  0  0  0
    7.6922   47.0633   51.6664 C   0  0  0  0  0  0  0  0  0  0  0  0
    6.6961   46.9294   52.6307 C   0  0  0  0  0  0  0  0  0  0  0  0
    5.6138   46.0738   52.3994 C   0  0  0  0  0  0  0  0  0  0  0  0
    5.5197   45.3471   51.2007 C   0  0  0  0  0  0  0  0  0  0  0  0
    4.3943   44.4521   50.9475 C   0  0  0  0  0  0  0  0  0  0  0  0
    4.0559   43.9969   49.7287 N   0  0  0  0  0  0  0  0  0  0  0  0
    2.9400   43.2007   49.9683 O   0  0  0  0  0  0  0  0  0  0  0  0
    2.7086   43.2500   51.3118 C   0  0  0  0  0  0  0  0  0  0  0  0
    1.5538   42.4463   51.8156 C   0  0  0  0  0  0  0  0  0  0  0  0
    1.4334   42.2836   53.2723 N   0  0  0  0  0  0  0  0  0  0  0  0
    0.6100   43.2146   53.9028 C   0  0  0  0  0  0  0  0  0  0  0  0
   -0.7230   43.0295   53.9887 N   0  0  0  0  0  0  0  0  0  0  0  0
   -1.4755   43.9569   54.6197 C   0  0  0  0  0  0  0  0  0  0  0  0
   -1.0725   45.0933   55.1957 N   0  0  0  0  0  0  0  0  0  0  0  0
    0.2531   45.2795   55.0863 C   0  0  0  0  0  0  0  0  0  0  0  0
    0.9438   46.3613   55.5659 N   0  0  0  0  0  0  0  0  0  0  0  0
    2.1948   46.1437   55.2249 C   0  0  0  0  0  0  0  0  0  0  0  0
    2.3367   44.9621   54.5503 N   0  0  0  0  0  0  0  0  0  0  0  0
    1.1001   44.3831   54.4596 C   0  0  0  0  0  0  0  0  0  0  0  0
    3.5829   43.9861   51.9601 N   0  0  0  0  0  0  0  0  0  0  0  0
    6.5341   45.4956   50.2412 C   0  0  0  0  0  0  0  0  0  0  0  0
    7.6164   46.3512   50.4724 C   0  0  0  0  0  0  0  0  0  0  0  0
    6.7603   47.4952   53.5719 H   0  0  0  0  0  0  0  0  0  0  0  0
    4.8291   45.9691   53.1632 H   0  0  0  0  0  0  0  0  0  0  0  0
    0.6327   42.9309   51.4594 H   0  0  0  0  0  0  0  0  0  0  0  0
    1.7251   41.4305   51.4297 H   0  0  0  0  0  0  0  0  0  0  0  0
    1.2084   41.3338   53.5437 H   0  0  0  0  0  0  0  0  0  0  0  0
   -2.5551   43.7510   54.6650 H   0  0  0  0  0  0  0  0  0  0  0  0
    3.0253   46.8276   55.4540 H   0  0  0  0  0  0  0  0  0  0  0  0
    3.1960   44.5968   54.1669 H   0  0  0  0  0  0  0  0  0  0  0  0
    6.4771   44.9331   49.2976 H   0  0  0  0  0  0  0  0  0  0  0  0
    8.4050   46.4610   49.7134 H   0  0  0  0  0  0  0  0  0  0  0  0
  1  2  1  0
  2  3  2  0
  3  4  1  0
  4  5  2  0
  5  6  1  0
  6  7  2  0
  7  8  1  0
  8  9  1  0
  9 10  1  0
 10 11  1  0
 11 12  1  0
 12 13  2  0
 13 14  1  0
 14 15  2  0
 15 16  1  0
 16 17  1  0
 17 18  2  0
 18 19  1  0
 19 20  1  0
  9 21  2  0
  5 22  1  0
 22 23  2  0
 23  2  1  0
 21  6  1  0
 20 12  1  0
 20 16  2  0
  3 24  1  0
  4 25  1  0
 10 26  1  0
 10 27  1  0
 11 28  1  0
 14 29  1  0
 18 30  1  0
 19 31  1  0
 22 32  1  0
 23 33  1  0
M  END
>  <meeko>  (137) 
{"is_sidechain": false}

>  <CID>  (137) 
Z1212723352

>  <pose_index>  (137) 
7

>  <docking_score>  (137) 
-8.061

>  <rmsd_to_best_selected>  (137) 
0.7355290654792088

>  <MWT>  (137) 
327.73499999999984

>  <TPSA>  (137) 
105.41000000000001

>  <logP>  (137) 
2.668399999999999

>  <HBD>  (137) 
2

>  <HBA>  (137) 
7

>  <SMILES>  (137) 
[H]c1nc(N([H])C([H])([H])c2nc(-c3c([H])c([H])c(Cl)c([H])c3[H])no2)c2c(n1)nc([H])n2[H]

$$$$
Z1212723352_pose8
     RDKit          3D

 33 36  0  0  0  0  0  0  0  0999 V2000
    9.6939   47.6649   49.5691 Cl  0  0  0  0  0  0  0  0  0  0  0  0
    8.3184   46.8640   50.2217 C   0  0  0  0  0  0  0  0  0  0  0  0
    8.1517   45.4973   50.0169 C   0  0  0  0  0  0  0  0  0  0  0  0
    7.0343   44.8445   50.5485 C   0  0  0  0  0  0  0  0  0  0  0  0
    6.0762   45.5556   51.2905 C   0  0  0  0  0  0  0  0  0  0  0  0
    4.9062   44.8858   51.8515 C   0  0  0  0  0  0  0  0  0  0  0  0
    4.7786   44.5574   53.1488 N   0  0  0  0  0  0  0  0  0  0  0  0
    3.5323   43.9434   53.2162 O   0  0  0  0  0  0  0  0  0  0  0  0
    3.0218   43.9589   51.9509 C   0  0  0  0  0  0  0  0  0  0  0  0
    1.6638   43.3625   51.7754 C   0  0  0  0  0  0  0  0  0  0  0  0
    0.5100   44.1988   52.1380 N   0  0  0  0  0  0  0  0  0  0  0  0
   -0.1550   43.8134   53.3000 C   0  0  0  0  0  0  0  0  0  0  0  0
   -1.3120   43.1219   53.2523 N   0  0  0  0  0  0  0  0  0  0  0  0
   -1.9123   42.7624   54.4086 C   0  0  0  0  0  0  0  0  0  0  0  0
   -1.5076   43.0109   55.6581 N   0  0  0  0  0  0  0  0  0  0  0  0
   -0.3671   43.7177   55.6961 C   0  0  0  0  0  0  0  0  0  0  0  0
    0.2713   44.1315   56.8350 N   0  0  0  0  0  0  0  0  0  0  0  0
    1.3217   44.7992   56.4119 C   0  0  0  0  0  0  0  0  0  0  0  0
    1.3866   44.8270   55.0457 N   0  0  0  0  0  0  0  0  0  0  0  0
    0.3149   44.1258   54.5643 C   0  0  0  0  0  0  0  0  0  0  0  0
    3.8155   44.5435   51.0813 N   0  0  0  0  0  0  0  0  0  0  0  0
    6.2621   46.9339   51.4853 C   0  0  0  0  0  0  0  0  0  0  0  0
    7.3795   47.5867   50.9536 C   0  0  0  0  0  0  0  0  0  0  0  0
    8.8969   44.9318   49.4382 H   0  0  0  0  0  0  0  0  0  0  0  0
    6.9046   43.7646   50.3841 H   0  0  0  0  0  0  0  0  0  0  0  0
    1.5560   43.0919   50.7146 H   0  0  0  0  0  0  0  0  0  0  0  0
    1.6328   42.5169   52.4782 H   0  0  0  0  0  0  0  0  0  0  0  0
    0.7266   45.1881   52.1356 H   0  0  0  0  0  0  0  0  0  0  0  0
   -2.8496   42.1952   54.3093 H   0  0  0  0  0  0  0  0  0  0  0  0
    2.0580   45.2769   57.0749 H   0  0  0  0  0  0  0  0  0  0  0  0
    2.0874   45.3008   54.4945 H   0  0  0  0  0  0  0  0  0  0  0  0
    5.5209   47.5065   52.0622 H   0  0  0  0  0  0  0  0  0  0  0  0
    7.5159   48.6665   51.1131 H   0  0  0  0  0  0  0  0  0  0  0  0
  1  2  1  0
  2  3  2  0
  3  4  1  0
  4  5  2  0
  5  6  1  0
  6  7  2  0
  7  8  1  0
  8  9  1  0
  9 10  1  0
 10 11  1  0
 11 12  1  0
 12 13  2  0
 13 14  1  0
 14 15  2  0
 15 16  1  0
 16 17  1  0
 17 18  2  0
 18 19  1  0
 19 20  1  0
  9 21  2  0
  5 22  1  0
 22 23  2  0
 23  2  1  0
 21  6  1  0
 20 12  1  0
 20 16  2  0
  3 24  1  0
  4 25  1  0
 10 26  1  0
 10 27  1  0
 11 28  1  0
 14 29  1  0
 18 30  1  0
 19 31  1  0
 22 32  1  0
 23 33  1  0
M  END
>  <meeko>  (138) 
{"is_sidechain": false}

>  <CID>  (138) 
Z1212723352

>  <pose_index>  (138) 
8

>  <docking_score>  (138) 
-7.776

>  <rmsd_to_best_selected>  (138) 
1.6883916501240581

>  <MWT>  (138) 
327.73499999999984

>  <TPSA>  (138) 
105.41000000000001

>  <logP>  (138) 
2.668399999999999

>  <HBD>  (138) 
2

>  <HBA>  (138) 
7

>  <SMILES>  (138) 
[H]c1nc(N([H])C([H])([H])c2nc(-c3c([H])c([H])c(Cl)c([H])c3[H])no2)c2c(n1)nc([H])n2[H]

$$$$
Z1272453975_pose10
     RDKit          3D

 42 46  0  0  0  0  0  0  0  0999 V2000
   -0.7723   43.2723   53.7364 C   0  0  0  0  0  0  0  0  0  0  0  0
   -0.2294   43.6949   52.5791 N   0  0  0  0  0  0  0  0  0  0  0  0
    1.0315   44.1974   52.5792 C   0  0  0  0  0  0  0  0  0  0  0  0
    1.6580   44.6512   51.4083 N   0  0  0  0  0  0  0  0  0  0  0  0
    2.9545   44.5047   50.8979 C   0  0  0  0  0  0  0  0  0  0  0  0
    3.3992   43.3875   50.1937 C   0  0  0  0  0  0  0  0  0  0  0  0
    4.7135   43.3095   49.7192 C   0  0  0  0  0  0  0  0  0  0  0  0
    5.6211   44.3455   49.9400 C   0  0  0  0  0  0  0  0  0  0  0  0
    6.8639   44.1326   49.4231 O   0  0  0  0  0  0  0  0  0  0  0  0
    7.9130   43.7044   50.3053 C   0  0  0  0  0  0  0  0  0  0  0  0
    8.2479   44.7037   51.3615 C   0  0  0  0  0  0  0  0  0  0  0  0
    8.6331   45.9566   51.0773 N   0  0  0  0  0  0  0  0  0  0  0  0
    8.8371   46.5198   52.3373 O   0  0  0  0  0  0  0  0  0  0  0  0
    8.5664   45.5423   53.2525 C   0  0  0  0  0  0  0  0  0  0  0  0
    8.6589   45.7531   54.7894 C   0  0  0  0  0  0  0  0  0  0  0  0
    8.6126   47.1503   55.3444 C   0  0  0  0  0  0  0  0  0  0  0  0
    7.4441   46.2345   55.5378 C   0  0  0  0  0  0  0  0  0  0  0  0
    8.2273   44.3997   52.7026 N   0  0  0  0  0  0  0  0  0  0  0  0
    5.1930   45.4704   50.6319 C   0  0  0  0  0  0  0  0  0  0  0  0
    3.8764   45.5442   51.1041 C   0  0  0  0  0  0  0  0  0  0  0  0
    1.7023   44.2454   53.8192 C   0  0  0  0  0  0  0  0  0  0  0  0
    2.9797   44.6715   54.2879 C   0  0  0  0  0  0  0  0  0  0  0  0
    3.0282   44.4452   55.6481 C   0  0  0  0  0  0  0  0  0  0  0  0
    1.8291   43.8972   56.0221 N   0  0  0  0  0  0  0  0  0  0  0  0
    1.0186   43.7727   54.9286 C   0  0  0  0  0  0  0  0  0  0  0  0
   -0.2210   43.2710   54.9606 N   0  0  0  0  0  0  0  0  0  0  0  0
   -1.7972   42.8783   53.6707 H   0  0  0  0  0  0  0  0  0  0  0  0
    1.0433   45.2033   50.8267 H   0  0  0  0  0  0  0  0  0  0  0  0
    2.7062   42.5537   50.0078 H   0  0  0  0  0  0  0  0  0  0  0  0
    5.0360   42.4168   49.1632 H   0  0  0  0  0  0  0  0  0  0  0  0
    7.5964   42.7722   50.7959 H   0  0  0  0  0  0  0  0  0  0  0  0
    8.8157   43.5675   49.6918 H   0  0  0  0  0  0  0  0  0  0  0  0
    9.3467   44.8999   54.8838 H   0  0  0  0  0  0  0  0  0  0  0  0
    9.2455   47.4220   56.2022 H   0  0  0  0  0  0  0  0  0  0  0  0
    8.7484   48.1577   54.9240 H   0  0  0  0  0  0  0  0  0  0  0  0
    7.2194   45.8336   56.5371 H   0  0  0  0  0  0  0  0  0  0  0  0
    6.3677   46.2910   55.3180 H   0  0  0  0  0  0  0  0  0  0  0  0
    5.8882   46.3042   50.8094 H   0  0  0  0  0  0  0  0  0  0  0  0
    3.5551   46.4421   51.6523 H   0  0  0  0  0  0  0  0  0  0  0  0
    3.7837   45.1038   53.6742 H   0  0  0  0  0  0  0  0  0  0  0  0
    3.8767   44.6652   56.3128 H   0  0  0  0  0  0  0  0  0  0  0  0
    1.5594   43.6177   56.9545 H   0  0  0  0  0  0  0  0  0  0  0  0
  1  2  2  0
  2  3  1  0
  3  4  1  0
  4  5  1  0
  5  6  2  0
  6  7  1  0
  7  8  2  0
  8  9  1  0
  9 10  1  0
 10 11  1  0
 11 12  2  0
 12 13  1  0
 13 14  1  0
 14 15  1  0
 15 16  1  0
 16 17  1  0
 14 18  2  0
  8 19  1  0
 19 20  2  0
  3 21  2  0
 21 22  1  0
 22 23  2  0
 23 24  1  0
 24 25  1  0
 25 26  2  0
 26  1  1  0
 20  5  1  0
 25 21  1  0
 18 11  1  0
 17 15  1  0
  1 27  1  0
  4 28  1  0
  6 29  1  0
  7 30  1  0
 10 31  1  0
 10 32  1  0
 15 33  1  0
 16 34  1  0
 16 35  1  0
 17 36  1  0
 17 37  1  0
 19 38  1  0
 20 39  1  0
 22 40  1  0
 23 41  1  0
 24 42  1  0
M  END
>  <meeko>  (139) 
{"is_sidechain": false}

>  <CID>  (139) 
Z1272453975

>  <pose_index>  (139) 
10

>  <docking_score>  (139) 
-8.365

>  <rmsd_to_best_selected>  (139) 
1.0746640750855003

>  <MWT>  (139) 
348.36599999999976

>  <TPSA>  (139) 
101.75000000000001

>  <logP>  (139) 
3.5409000000000015

>  <HBD>  (139) 
2

>  <HBA>  (139) 
7

>  <SMILES>  (139) 
[H]c1nc(N([H])c2c([H])c([H])c(OC([H])([H])c3noc(C4([H])C([H])([H])C4([H])[H])n3)c([H])c2[H])c2c([H])c([H])n([H])c2n1

$$$$
Z1272453975_pose3
     RDKit          3D

 42 46  0  0  0  0  0  0  0  0999 V2000
    0.0637   42.9567   54.7602 C   0  0  0  0  0  0  0  0  0  0  0  0
    0.4680   42.7664   53.4896 N   0  0  0  0  0  0  0  0  0  0  0  0
    1.4222   43.5775   52.9665 C   0  0  0  0  0  0  0  0  0  0  0  0
    1.8912   43.4322   51.6521 N   0  0  0  0  0  0  0  0  0  0  0  0
    3.1504   43.6029   51.0596 C   0  0  0  0  0  0  0  0  0  0  0  0
    4.1442   42.6275   51.0366 C   0  0  0  0  0  0  0  0  0  0  0  0
    5.3817   42.8728   50.4306 C   0  0  0  0  0  0  0  0  0  0  0  0
    5.6608   44.1027   49.8362 C   0  0  0  0  0  0  0  0  0  0  0  0
    6.9042   44.2013   49.2885 O   0  0  0  0  0  0  0  0  0  0  0  0
    8.0421   43.8546   50.0930 C   0  0  0  0  0  0  0  0  0  0  0  0
    8.2292   44.7431   51.2760 C   0  0  0  0  0  0  0  0  0  0  0  0
    8.8255   45.9420   51.1957 N   0  0  0  0  0  0  0  0  0  0  0  0
    8.7807   46.4082   52.5098 O   0  0  0  0  0  0  0  0  0  0  0  0
    8.1723   45.4361   53.2506 C   0  0  0  0  0  0  0  0  0  0  0  0
    7.9082   45.5579   54.7774 C   0  0  0  0  0  0  0  0  0  0  0  0
    8.0836   46.8904   55.4514 C   0  0  0  0  0  0  0  0  0  0  0  0
    6.7082   46.3322   55.2543 C   0  0  0  0  0  0  0  0  0  0  0  0
    7.8387   44.3810   52.5442 N   0  0  0  0  0  0  0  0  0  0  0  0
    4.6783   45.0852   49.8424 C   0  0  0  0  0  0  0  0  0  0  0  0
    3.4410   44.8335   50.4487 C   0  0  0  0  0  0  0  0  0  0  0  0
    1.9378   44.5866   53.8066 C   0  0  0  0  0  0  0  0  0  0  0  0
    2.9071   45.6267   53.7002 C   0  0  0  0  0  0  0  0  0  0  0  0
    2.9528   46.2877   54.9096 C   0  0  0  0  0  0  0  0  0  0  0  0
    2.0497   45.6880   55.7465 N   0  0  0  0  0  0  0  0  0  0  0  0
    1.4272   44.6622   55.0933 C   0  0  0  0  0  0  0  0  0  0  0  0
    0.4895   43.8782   55.6382 N   0  0  0  0  0  0  0  0  0  0  0  0
   -0.7143   42.2697   55.1246 H   0  0  0  0  0  0  0  0  0  0  0  0
    1.1634   43.1591   51.0071 H   0  0  0  0  0  0  0  0  0  0  0  0
    3.9536   41.6492   51.5020 H   0  0  0  0  0  0  0  0  0  0  0  0
    6.1467   42.0824   50.4231 H   0  0  0  0  0  0  0  0  0  0  0  0
    7.9140   42.8221   50.4501 H   0  0  0  0  0  0  0  0  0  0  0  0
    8.9332   43.9700   49.4585 H   0  0  0  0  0  0  0  0  0  0  0  0
    8.2998   44.5435   54.9441 H   0  0  0  0  0  0  0  0  0  0  0  0
    8.5158   46.9424   56.4616 H   0  0  0  0  0  0  0  0  0  0  0  0
    8.5837   47.8340   55.1878 H   0  0  0  0  0  0  0  0  0  0  0  0
    6.1311   45.9740   56.1195 H   0  0  0  0  0  0  0  0  0  0  0  0
    5.7815   46.6958   54.7862 H   0  0  0  0  0  0  0  0  0  0  0  0
    4.8722   46.0602   49.3715 H   0  0  0  0  0  0  0  0  0  0  0  0
    2.6747   45.6226   50.4462 H   0  0  0  0  0  0  0  0  0  0  0  0
    3.5113   45.8605   52.8112 H   0  0  0  0  0  0  0  0  0  0  0  0
    3.5986   47.1429   55.1575 H   0  0  0  0  0  0  0  0  0  0  0  0
    1.8540   45.9447   56.7038 H   0  0  0  0  0  0  0  0  0  0  0  0
  1  2  2  0
  2  3  1  0
  3  4  1  0
  4  5  1  0
  5  6  2  0
  6  7  1  0
  7  8  2  0
  8  9  1  0
  9 10  1  0
 10 11  1  0
 11 12  2  0
 12 13  1  0
 13 14  1  0
 14 15  1  0
 15 16  1  0
 16 17  1  0
 14 18  2  0
  8 19  1  0
 19 20  2  0
  3 21  2  0
 21 22  1  0
 22 23  2  0
 23 24  1  0
 24 25  1  0
 25 26  2  0
 26  1  1  0
 20  5  1  0
 25 21  1  0
 18 11  1  0
 17 15  1  0
  1 27  1  0
  4 28  1  0
  6 29  1  0
  7 30  1  0
 10 31  1  0
 10 32  1  0
 15 33  1  0
 16 34  1  0
 16 35  1  0
 17 36  1  0
 17 37  1  0
 19 38  1  0
 20 39  1  0
 22 40  1  0
 23 41  1  0
 24 42  1  0
M  END
>  <meeko>  (140) 
{"is_sidechain": false}

>  <CID>  (140) 
Z1272453975

>  <pose_index>  (140) 
3

>  <docking_score>  (140) 
-8.775

>  <rmsd_to_best_selected>  (140) 
0.0

>  <MWT>  (140) 
348.36599999999976

>  <TPSA>  (140) 
101.75000000000001

>  <logP>  (140) 
3.5409000000000015

>  <HBD>  (140) 
2

>  <HBA>  (140) 
7

>  <SMILES>  (140) 
[H]c1nc(N([H])c2c([H])c([H])c(OC([H])([H])c3noc(C4([H])C([H])([H])C4([H])[H])n3)c([H])c2[H])c2c([H])c([H])n([H])c2n1

$$$$
Z1272453975_pose4
     RDKit          3D

 42 46  0  0  0  0  0  0  0  0999 V2000
    0.5000   42.7486   54.8799 C   0  0  0  0  0  0  0  0  0  0  0  0
    0.8544   42.7264   53.5804 N   0  0  0  0  0  0  0  0  0  0  0  0
    1.5978   43.7423   53.0749 C   0  0  0  0  0  0  0  0  0  0  0  0
    2.0037   43.7796   51.7328 N   0  0  0  0  0  0  0  0  0  0  0  0
    3.2588   43.8643   51.1137 C   0  0  0  0  0  0  0  0  0  0  0  0
    3.8083   45.0441   50.6139 C   0  0  0  0  0  0  0  0  0  0  0  0
    5.0661   45.0502   50.0013 C   0  0  0  0  0  0  0  0  0  0  0  0
    5.8065   43.8765   49.8656 C   0  0  0  0  0  0  0  0  0  0  0  0
    7.0108   44.0321   49.2476 O   0  0  0  0  0  0  0  0  0  0  0  0
    8.2083   43.7482   49.9884 C   0  0  0  0  0  0  0  0  0  0  0  0
    8.3781   44.6058   51.1969 C   0  0  0  0  0  0  0  0  0  0  0  0
    9.1794   45.6818   51.2148 N   0  0  0  0  0  0  0  0  0  0  0  0
    9.0326   46.1646   52.5159 O   0  0  0  0  0  0  0  0  0  0  0  0
    8.1666   45.3224   53.1526 C   0  0  0  0  0  0  0  0  0  0  0  0
    7.7165   45.5064   54.6289 C   0  0  0  0  0  0  0  0  0  0  0  0
    7.4911   46.8944   55.1614 C   0  0  0  0  0  0  0  0  0  0  0  0
    6.3204   45.9945   54.9129 C   0  0  0  0  0  0  0  0  0  0  0  0
    7.7580   44.3328   52.3931 N   0  0  0  0  0  0  0  0  0  0  0  0
    5.2792   42.6933   50.3663 C   0  0  0  0  0  0  0  0  0  0  0  0
    4.0207   42.6925   50.9797 C   0  0  0  0  0  0  0  0  0  0  0  0
    1.9553   44.7792   53.9632 C   0  0  0  0  0  0  0  0  0  0  0  0
    2.6937   45.9964   53.8884 C   0  0  0  0  0  0  0  0  0  0  0  0
    2.6839   46.5750   55.1408 C   0  0  0  0  0  0  0  0  0  0  0  0
    1.9689   45.7538   55.9727 N   0  0  0  0  0  0  0  0  0  0  0  0
    1.5211   44.6682   55.2745 C   0  0  0  0  0  0  0  0  0  0  0  0
    0.7896   43.6792   55.8028 N   0  0  0  0  0  0  0  0  0  0  0  0
   -0.1025   41.8969   55.2286 H   0  0  0  0  0  0  0  0  0  0  0  0
    1.2259   43.7477   51.0886 H   0  0  0  0  0  0  0  0  0  0  0  0
    3.2445   45.9844   50.7027 H   0  0  0  0  0  0  0  0  0  0  0  0
    5.4776   45.9965   49.6204 H   0  0  0  0  0  0  0  0  0  0  0  0
    8.1780   42.6965   50.3094 H   0  0  0  0  0  0  0  0  0  0  0  0
    9.0581   43.9568   49.3218 H   0  0  0  0  0  0  0  0  0  0  0  0
    8.3200   44.6412   54.9410 H   0  0  0  0  0  0  0  0  0  0  0  0
    7.7847   47.1417   56.1922 H   0  0  0  0  0  0  0  0  0  0  0  0
    7.7753   47.9062   54.8366 H   0  0  0  0  0  0  0  0  0  0  0  0
    5.7552   45.5807   55.7610 H   0  0  0  0  0  0  0  0  0  0  0  0
    5.3904   46.0717   54.3304 H   0  0  0  0  0  0  0  0  0  0  0  0
    5.8501   41.7570   50.2810 H   0  0  0  0  0  0  0  0  0  0  0  0
    3.6169   41.7459   51.3682 H   0  0  0  0  0  0  0  0  0  0  0  0
    3.1841   46.4022   52.9913 H   0  0  0  0  0  0  0  0  0  0  0  0
    3.1636   47.5244   55.4210 H   0  0  0  0  0  0  0  0  0  0  0  0
    1.7858   45.9040   56.9543 H   0  0  0  0  0  0  0  0  0  0  0  0
  1  2  2  0
  2  3  1  0
  3  4  1  0
  4  5  1  0
  5  6  2  0
  6  7  1  0
  7  8  2  0
  8  9  1  0
  9 10  1  0
 10 11  1  0
 11 12  2  0
 12 13  1  0
 13 14  1  0
 14 15  1  0
 15 16  1  0
 16 17  1  0
 14 18  2  0
  8 19  1  0
 19 20  2  0
  3 21  2  0
 21 22  1  0
 22 23  2  0
 23 24  1  0
 24 25  1  0
 25 26  2  0
 26  1  1  0
 20  5  1  0
 25 21  1  0
 18 11  1  0
 17 15  1  0
  1 27  1  0
  4 28  1  0
  6 29  1  0
  7 30  1  0
 10 31  1  0
 10 32  1  0
 15 33  1  0
 16 34  1  0
 16 35  1  0
 17 36  1  0
 17 37  1  0
 19 38  1  0
 20 39  1  0
 22 40  1  0
 23 41  1  0
 24 42  1  0
M  END
>  <meeko>  (141) 
{"is_sidechain": false}

>  <CID>  (141) 
Z1272453975

>  <pose_index>  (141) 
4

>  <docking_score>  (141) 
-8.67

>  <rmsd_to_best_selected>  (141) 
0.4682923703136577

>  <MWT>  (141) 
348.36599999999976

>  <TPSA>  (141) 
101.75000000000001

>  <logP>  (141) 
3.5409000000000015

>  <HBD>  (141) 
2

>  <HBA>  (141) 
7

>  <SMILES>  (141) 
[H]c1nc(N([H])c2c([H])c([H])c(OC([H])([H])c3noc(C4([H])C([H])([H])C4([H])[H])n3)c([H])c2[H])c2c([H])c([H])n([H])c2n1

$$$$
Z1272453975_pose5
     RDKit          3D

 42 46  0  0  0  0  0  0  0  0999 V2000
   -0.2013   42.9520   54.4216 C   0  0  0  0  0  0  0  0  0  0  0  0
    0.2277   43.0826   53.1508 N   0  0  0  0  0  0  0  0  0  0  0  0
    1.3519   43.7998   52.8981 C   0  0  0  0  0  0  0  0  0  0  0  0
    1.8555   43.9712   51.6001 N   0  0  0  0  0  0  0  0  0  0  0  0
    3.1451   43.9014   51.0552 C   0  0  0  0  0  0  0  0  0  0  0  0
    3.9359   42.7550   51.0582 C   0  0  0  0  0  0  0  0  0  0  0  0
    5.2189   42.7628   50.5003 C   0  0  0  0  0  0  0  0  0  0  0  0
    5.7489   43.9192   49.9290 C   0  0  0  0  0  0  0  0  0  0  0  0
    7.0077   43.7812   49.4274 O   0  0  0  0  0  0  0  0  0  0  0  0
    8.0789   43.4667   50.3300 C   0  0  0  0  0  0  0  0  0  0  0  0
    8.3081   44.5114   51.3696 C   0  0  0  0  0  0  0  0  0  0  0  0
    9.2188   45.4861   51.2308 N   0  0  0  0  0  0  0  0  0  0  0  0
    9.0902   46.2134   52.4145 O   0  0  0  0  0  0  0  0  0  0  0  0
    8.1227   45.5943   53.1526 C   0  0  0  0  0  0  0  0  0  0  0  0
    7.6541   46.0913   54.5481 C   0  0  0  0  0  0  0  0  0  0  0  0
    7.9211   47.5162   54.9488 C   0  0  0  0  0  0  0  0  0  0  0  0
    6.5234   47.0825   54.6315 C   0  0  0  0  0  0  0  0  0  0  0  0
    7.6300   44.5276   52.5669 N   0  0  0  0  0  0  0  0  0  0  0  0
    4.9708   45.0701   49.9092 C   0  0  0  0  0  0  0  0  0  0  0  0
    3.6867   45.0560   50.4676 C   0  0  0  0  0  0  0  0  0  0  0  0
    2.0089   44.3743   54.0064 C   0  0  0  0  0  0  0  0  0  0  0  0
    3.1695   45.1744   54.2203 C   0  0  0  0  0  0  0  0  0  0  0  0
    3.2781   45.4089   55.5752 C   0  0  0  0  0  0  0  0  0  0  0  0
    2.2285   44.7812   56.1920 N   0  0  0  0  0  0  0  0  0  0  0  0
    1.4525   44.1548   55.2571 C   0  0  0  0  0  0  0  0  0  0  0  0
    0.3495   43.4525   55.5391 N   0  0  0  0  0  0  0  0  0  0  0  0
   -1.1183   42.3607   54.5609 H   0  0  0  0  0  0  0  0  0  0  0  0
    1.1348   44.2023   50.9301 H   0  0  0  0  0  0  0  0  0  0  0  0
    3.5458   41.8292   51.5062 H   0  0  0  0  0  0  0  0  0  0  0  0
    5.8196   41.8413   50.5124 H   0  0  0  0  0  0  0  0  0  0  0  0
    7.8413   42.5190   50.8354 H   0  0  0  0  0  0  0  0  0  0  0  0
    8.9984   43.4009   49.7299 H   0  0  0  0  0  0  0  0  0  0  0  0
    7.8625   45.1057   54.9899 H   0  0  0  0  0  0  0  0  0  0  0  0
    8.2010   47.7519   55.9861 H   0  0  0  0  0  0  0  0  0  0  0  0
    8.5880   48.3126   54.5869 H   0  0  0  0  0  0  0  0  0  0  0  0
    5.7777   46.9993   55.4358 H   0  0  0  0  0  0  0  0  0  0  0  0
    5.7404   47.4282   53.9406 H   0  0  0  0  0  0  0  0  0  0  0  0
    5.3633   45.9919   49.4552 H   0  0  0  0  0  0  0  0  0  0  0  0
    3.0846   45.9764   50.4453 H   0  0  0  0  0  0  0  0  0  0  0  0
    3.8563   45.5399   53.4427 H   0  0  0  0  0  0  0  0  0  0  0  0
    4.0660   45.9946   56.0712 H   0  0  0  0  0  0  0  0  0  0  0  0
    2.0344   44.7657   57.1831 H   0  0  0  0  0  0  0  0  0  0  0  0
  1  2  2  0
  2  3  1  0
  3  4  1  0
  4  5  1  0
  5  6  2  0
  6  7  1  0
  7  8  2  0
  8  9  1  0
  9 10  1  0
 10 11  1  0
 11 12  2  0
 12 13  1  0
 13 14  1  0
 14 15  1  0
 15 16  1  0
 16 17  1  0
 14 18  2  0
  8 19  1  0
 19 20  2  0
  3 21  2  0
 21 22  1  0
 22 23  2  0
 23 24  1  0
 24 25  1  0
 25 26  2  0
 26  1  1  0
 20  5  1  0
 25 21  1  0
 18 11  1  0
 17 15  1  0
  1 27  1  0
  4 28  1  0
  6 29  1  0
  7 30  1  0
 10 31  1  0
 10 32  1  0
 15 33  1  0
 16 34  1  0
 16 35  1  0
 17 36  1  0
 17 37  1  0
 19 38  1  0
 20 39  1  0
 22 40  1  0
 23 41  1  0
 24 42  1  0
M  END
>  <meeko>  (142) 
{"is_sidechain": false}

>  <CID>  (142) 
Z1272453975

>  <pose_index>  (142) 
5

>  <docking_score>  (142) 
-8.549

>  <rmsd_to_best_selected>  (142) 
0.7000640462501506

>  <MWT>  (142) 
348.36599999999976

>  <TPSA>  (142) 
101.75000000000001

>  <logP>  (142) 
3.5409000000000015

>  <HBD>  (142) 
2

>  <HBA>  (142) 
7

>  <SMILES>  (142) 
[H]c1nc(N([H])c2c([H])c([H])c(OC([H])([H])c3noc(C4([H])C([H])([H])C4([H])[H])n3)c([H])c2[H])c2c([H])c([H])n([H])c2n1

$$$$
Z1272453975_pose8
     RDKit          3D

 42 46  0  0  0  0  0  0  0  0999 V2000
   -0.8680   43.1501   53.9205 C   0  0  0  0  0  0  0  0  0  0  0  0
   -0.2980   43.3336   52.7137 N   0  0  0  0  0  0  0  0  0  0  0  0
    0.9579   43.8415   52.6411 C   0  0  0  0  0  0  0  0  0  0  0  0
    1.6118   44.0534   51.4182 N   0  0  0  0  0  0  0  0  0  0  0  0
    2.9525   43.9668   51.0204 C   0  0  0  0  0  0  0  0  0  0  0  0
    3.5618   42.7991   50.5659 C   0  0  0  0  0  0  0  0  0  0  0  0
    4.9101   42.7874   50.1925 C   0  0  0  0  0  0  0  0  0  0  0  0
    5.6877   43.9428   50.2670 C   0  0  0  0  0  0  0  0  0  0  0  0
    6.9833   43.7836   49.8736 O   0  0  0  0  0  0  0  0  0  0  0  0
    7.8473   44.9300   49.8669 C   0  0  0  0  0  0  0  0  0  0  0  0
    8.5272   45.1721   51.1715 C   0  0  0  0  0  0  0  0  0  0  0  0
    9.7011   44.6068   51.4919 N   0  0  0  0  0  0  0  0  0  0  0  0
    9.9527   45.1023   52.7723 O   0  0  0  0  0  0  0  0  0  0  0  0
    8.8966   45.9045   53.0975 C   0  0  0  0  0  0  0  0  0  0  0  0
    8.7821   46.6712   54.4443 C   0  0  0  0  0  0  0  0  0  0  0  0
    7.4261   46.8758   55.0608 C   0  0  0  0  0  0  0  0  0  0  0  0
    8.3892   45.9148   55.6863 C   0  0  0  0  0  0  0  0  0  0  0  0
    7.9812   45.9585   52.1575 N   0  0  0  0  0  0  0  0  0  0  0  0
    5.0949   45.1181   50.7087 C   0  0  0  0  0  0  0  0  0  0  0  0
    3.7448   45.1249   51.0811 C   0  0  0  0  0  0  0  0  0  0  0  0
    1.5965   44.1505   53.8606 C   0  0  0  0  0  0  0  0  0  0  0  0
    2.8577   44.6791   54.2636 C   0  0  0  0  0  0  0  0  0  0  0  0
    2.8720   44.7363   55.6412 C   0  0  0  0  0  0  0  0  0  0  0  0
    1.6680   44.2607   56.0907 N   0  0  0  0  0  0  0  0  0  0  0  0
    0.8878   43.9063   55.0265 C   0  0  0  0  0  0  0  0  0  0  0  0
   -0.3494   43.4063   55.1312 N   0  0  0  0  0  0  0  0  0  0  0  0
   -1.8878   42.7379   53.9122 H   0  0  0  0  0  0  0  0  0  0  0  0
    0.9786   44.3365   50.6821 H   0  0  0  0  0  0  0  0  0  0  0  0
    2.9735   41.8720   50.4998 H   0  0  0  0  0  0  0  0  0  0  0  0
    5.3641   41.8517   49.8343 H   0  0  0  0  0  0  0  0  0  0  0  0
    8.6174   44.7806   49.0958 H   0  0  0  0  0  0  0  0  0  0  0  0
    7.2168   45.8081   49.6637 H   0  0  0  0  0  0  0  0  0  0  0  0
    9.6168   47.3299   54.1623 H   0  0  0  0  0  0  0  0  0  0  0  0
    7.1898   47.8238   55.5661 H   0  0  0  0  0  0  0  0  0  0  0  0
    6.3901   46.8103   54.6970 H   0  0  0  0  0  0  0  0  0  0  0  0
    8.8604   46.1578   56.6501 H   0  0  0  0  0  0  0  0  0  0  0  0
    8.3534   44.8530   55.9712 H   0  0  0  0  0  0  0  0  0  0  0  0
    5.6857   46.0442   50.7662 H   0  0  0  0  0  0  0  0  0  0  0  0
    3.2919   46.0642   51.4312 H   0  0  0  0  0  0  0  0  0  0  0  0
    3.6746   44.9867   53.5943 H   0  0  0  0  0  0  0  0  0  0  0  0
    3.7010   45.0986   56.2670 H   0  0  0  0  0  0  0  0  0  0  0  0
    1.3766   44.1748   57.0534 H   0  0  0  0  0  0  0  0  0  0  0  0
  1  2  2  0
  2  3  1  0
  3  4  1  0
  4  5  1  0
  5  6  2  0
  6  7  1  0
  7  8  2  0
  8  9  1  0
  9 10  1  0
 10 11  1  0
 11 12  2  0
 12 13  1  0
 13 14  1  0
 14 15  1  0
 15 16  1  0
 16 17  1  0
 14 18  2  0
  8 19  1  0
 19 20  2  0
  3 21  2  0
 21 22  1  0
 22 23  2  0
 23 24  1  0
 24 25  1  0
 25 26  2  0
 26  1  1  0
 20  5  1  0
 25 21  1  0
 18 11  1  0
 17 15  1  0
  1 27  1  0
  4 28  1  0
  6 29  1  0
  7 30  1  0
 10 31  1  0
 10 32  1  0
 15 33  1  0
 16 34  1  0
 16 35  1  0
 17 36  1  0
 17 37  1  0
 19 38  1  0
 20 39  1  0
 22 40  1  0
 23 41  1  0
 24 42  1  0
M  END
>  <meeko>  (143) 
{"is_sidechain": false}

>  <CID>  (143) 
Z1272453975

>  <pose_index>  (143) 
8

>  <docking_score>  (143) 
-8.428

>  <rmsd_to_best_selected>  (143) 
1.328402903462431

>  <MWT>  (143) 
348.36599999999976

>  <TPSA>  (143) 
101.75000000000001

>  <logP>  (143) 
3.5409000000000015

>  <HBD>  (143) 
2

>  <HBA>  (143) 
7

>  <SMILES>  (143) 
[H]c1nc(N([H])c2c([H])c([H])c(OC([H])([H])c3noc(C4([H])C([H])([H])C4([H])[H])n3)c([H])c2[H])c2c([H])c([H])n([H])c2n1

$$$$
Z1274688759_pose1
     RDKit          3D

 53 56  0  0  0  0  0  0  0  0999 V2000
    0.6470   42.2180   53.7600 C   0  0  0  0  0  0  0  0  0  0  0  0
    1.8950   42.9850   53.4050 N   0  0  0  0  0  4  0  0  0  0  0  0
    1.9880   44.3560   54.0380 C   0  0  0  0  0  0  0  0  0  0  0  0
    0.9470   45.2930   53.4120 C   0  0  0  0  0  0  0  0  0  0  0  0
    0.9250   45.3230   51.8850 C   0  0  0  0  0  0  0  0  0  0  0  0
    1.1500   43.9610   51.2350 C   0  0  0  0  0  0  0  0  0  0  0  0
    2.1840   43.0640   51.9230 C   0  0  0  0  0  0  0  0  0  0  0  0
    3.6440   43.5020   51.7540 C   0  0  0  0  0  0  0  0  0  0  0  0
    4.0010   44.7950   52.4930 C   0  0  0  0  0  0  0  0  0  0  0  0
    5.4410   45.0010   52.4980 N   0  0  0  0  0  0  0  0  0  0  0  0
    5.9930   46.2630   52.6020 C   0  0  0  0  0  0  0  0  0  0  0  0
    5.2810   47.2570   52.7070 O   0  0  0  0  0  0  0  0  0  0  0  0
    7.4890   46.3820   52.5800 C   0  0  0  0  0  0  0  0  0  0  0  0
    8.0840   46.8250   53.7770 C   0  0  0  0  0  0  0  0  0  0  0  0
    9.4640   46.9840   53.8770 C   0  0  0  0  0  0  0  0  0  0  0  0
   10.2670   46.7070   52.7790 C   0  0  0  0  0  0  0  0  0  0  0  0
    9.6940   46.2630   51.5820 C   0  0  0  0  0  0  0  0  0  0  0  0
    8.3080   46.0830   51.4680 C   0  0  0  0  0  0  0  0  0  0  0  0
    7.6950   45.6570   50.3160 O   0  0  0  0  0  0  0  0  0  0  0  0
    7.9800   44.3480   49.8070 C   0  0  0  0  0  0  0  0  0  0  0  0
    6.7210   43.5430   49.6940 C   0  0  0  0  0  0  0  0  0  0  0  0
    6.5110   42.6490   48.4970 C   0  0  0  0  0  0  0  0  0  0  0  0
    6.7250   42.0430   49.8550 C   0  0  0  0  0  0  0  0  0  0  0  0
    3.4410   44.8210   53.9220 C   0  0  0  0  0  0  0  0  0  0  0  0
    0.5515   42.1593   54.8543 H   0  0  0  0  0  0  0  0  0  0  0  0
   -0.2309   42.7326   53.3424 H   0  0  0  0  0  0  0  0  0  0  0  0
    0.7096   41.2023   53.3424 H   0  0  0  0  0  0  0  0  0  0  0  0
    2.6510   42.4240   53.8240 H   0  0  0  0  0  0  0  0  0  0  0  0
    1.7391   44.3459   55.1094 H   0  0  0  0  0  0  0  0  0  0  0  0
   -0.0473   44.9756   53.7593 H   0  0  0  0  0  0  0  0  0  0  0  0
    1.2239   46.3088   53.7306 H   0  0  0  0  0  0  0  0  0  0  0  0
   -0.0546   45.7037   51.5604 H   0  0  0  0  0  0  0  0  0  0  0  0
    1.7566   45.9691   51.5670 H   0  0  0  0  0  0  0  0  0  0  0  0
    0.1888   43.4261   51.2278 H   0  0  0  0  0  0  0  0  0  0  0  0
    1.5502   44.1680   50.2315 H   0  0  0  0  0  0  0  0  0  0  0  0
    2.0818   42.0899   51.4223 H   0  0  0  0  0  0  0  0  0  0  0  0
    4.2916   42.6978   52.1334 H   0  0  0  0  0  0  0  0  0  0  0  0
    3.7929   43.6991   50.6821 H   0  0  0  0  0  0  0  0  0  0  0  0
    3.5271   45.6239   51.9468 H   0  0  0  0  0  0  0  0  0  0  0  0
    6.0920   44.2220   52.4300 H   0  0  0  0  0  0  0  0  0  0  0  0
    7.4488   47.0490   54.6467 H   0  0  0  0  0  0  0  0  0  0  0  0
    9.9148   47.3269   54.8200 H   0  0  0  0  0  0  0  0  0  0  0  0
   11.3570   46.8369   52.8501 H   0  0  0  0  0  0  0  0  0  0  0  0
   10.3406   46.0520   50.7175 H   0  0  0  0  0  0  0  0  0  0  0  0
    8.4420   44.4389   48.8129 H   0  0  0  0  0  0  0  0  0  0  0  0
    8.6667   43.8389   50.4993 H   0  0  0  0  0  0  0  0  0  0  0  0
    6.1697   44.3656   50.1730 H   0  0  0  0  0  0  0  0  0  0  0  0
    5.5215   42.5928   48.0198 H   0  0  0  0  0  0  0  0  0  0  0  0
    6.9920   42.5415   47.5136 H   0  0  0  0  0  0  0  0  0  0  0  0
    5.8921   41.5434   50.3714 H   0  0  0  0  0  0  0  0  0  0  0  0
    7.4273   41.3086   50.2762 H   0  0  0  0  0  0  0  0  0  0  0  0
    4.0636   44.1648   54.5479 H   0  0  0  0  0  0  0  0  0  0  0  0
    3.4626   45.8709   54.2495 H   0  0  0  0  0  0  0  0  0  0  0  0
  1  2  1  0
  2  3  1  0
  3  4  1  0
  4  5  1  0
  5  6  1  0
  6  7  1  0
  7  8  1  0
  8  9  1  0
  9 10  1  0
 10 11  1  0
 11 12  2  0
 11 13  1  0
 13 14  2  0
 14 15  1  0
 15 16  2  0
 16 17  1  0
 17 18  2  0
 18 19  1  0
 19 20  1  0
 20 21  1  0
 21 22  1  0
 22 23  1  0
  9 24  1  0
  7  2  1  0
 18 13  1  0
 23 21  1  0
 24  3  1  0
  1 25  1  0
  1 26  1  0
  1 27  1  0
  2 28  1  0
  3 29  1  0
  4 30  1  0
  4 31  1  0
  5 32  1  0
  5 33  1  0
  6 34  1  0
  6 35  1  0
  7 36  1  0
  8 37  1  0
  8 38  1  0
  9 39  1  0
 10 40  1  0
 14 41  1  0
 15 42  1  0
 16 43  1  0
 17 44  1  0
 20 45  1  0
 20 46  1  0
 21 47  1  0
 22 48  1  0
 22 49  1  0
 23 50  1  0
 23 51  1  0
 24 52  1  0
 24 53  1  0
M  CHG  1   2   1
M  END
>  <meeko>  (144) 
{"is_sidechain": false}

>  <CID>  (144) 
Z1274688759

>  <pose_index>  (144) 
1

>  <docking_score>  (144) 
-9.042

>  <rmsd_to_best_selected>  (144) 
0.0

>  <MWT>  (144) 
329.4639999999995

>  <TPSA>  (144) 
42.769999999999996

>  <logP>  (144) 
1.8034000000000001

>  <HBD>  (144) 
2

>  <HBA>  (144) 
2

>  <SMILES>  (144) 
[H]c1c([H])c([H])c(C(=O)N([H])C2([H])C([H])([H])C3([H])C([H])([H])C([H])([H])C([H])([H])C([H])(C2([H])[H])[N+]3([H])C([H])([H])[H])c(OC([H])([H])C2([H])C([H])([H])C2([H])[H])c1[H]

$$$$
Z1274688759_pose3
     RDKit          3D

 53 56  0  0  0  0  0  0  0  0999 V2000
   -0.1474   42.9839   54.7806 C   0  0  0  0  0  0  0  0  0  0  0  0
    1.1591   43.5527   54.2892 N   0  0  0  0  0  4  0  0  0  0  0  0
    1.2201   45.0649   54.2857 C   0  0  0  0  0  0  0  0  0  0  0  0
    0.2941   45.6233   53.1997 C   0  0  0  0  0  0  0  0  0  0  0  0
    0.4551   44.9999   51.8145 C   0  0  0  0  0  0  0  0  0  0  0  0
    0.7113   43.4955   51.8380 C   0  0  0  0  0  0  0  0  0  0  0  0
    1.6258   42.9996   52.9626 C   0  0  0  0  0  0  0  0  0  0  0  0
    3.1094   43.3551   52.8030 C   0  0  0  0  0  0  0  0  0  0  0  0
    3.4171   44.8458   52.9601 C   0  0  0  0  0  0  0  0  0  0  0  0
    4.8523   45.0657   53.0531 N   0  0  0  0  0  0  0  0  0  0  0  0
    5.6235   45.3129   51.9341 C   0  0  0  0  0  0  0  0  0  0  0  0
    5.1161   45.3665   50.8164 O   0  0  0  0  0  0  0  0  0  0  0  0
    7.0989   45.5092   52.1233 C   0  0  0  0  0  0  0  0  0  0  0  0
    7.4733   46.6350   52.8814 C   0  0  0  0  0  0  0  0  0  0  0  0
    8.8137   46.9269   53.1177 C   0  0  0  0  0  0  0  0  0  0  0  0
    9.7988   46.1004   52.5944 C   0  0  0  0  0  0  0  0  0  0  0  0
    9.4453   44.9766   51.8406 C   0  0  0  0  0  0  0  0  0  0  0  0
    8.1010   44.6580   51.6052 C   0  0  0  0  0  0  0  0  0  0  0  0
    7.7009   43.5709   50.8671 O   0  0  0  0  0  0  0  0  0  0  0  0
    7.7904   43.6161   49.4375 C   0  0  0  0  0  0  0  0  0  0  0  0
    9.0880   43.0267   48.9745 C   0  0  0  0  0  0  0  0  0  0  0  0
    9.4251   43.0286   47.5042 C   0  0  0  0  0  0  0  0  0  0  0  0
   10.2066   43.8930   48.4530 C   0  0  0  0  0  0  0  0  0  0  0  0
    2.6918   45.4657   54.1615 C   0  0  0  0  0  0  0  0  0  0  0  0
   -0.8416   42.8757   53.9342 H   0  0  0  0  0  0  0  0  0  0  0  0
    0.0300   41.9992   55.2375 H   0  0  0  0  0  0  0  0  0  0  0  0
   -0.5842   43.6619   55.5287 H   0  0  0  0  0  0  0  0  0  0  0  0
    1.8399   43.2387   54.9953 H   0  0  0  0  0  0  0  0  0  0  0  0
    0.8438   45.5073   55.2198 H   0  0  0  0  0  0  0  0  0  0  0  0
   -0.7446   45.4634   53.5247 H   0  0  0  0  0  0  0  0  0  0  0  0
    0.5651   46.6835   53.0873 H   0  0  0  0  0  0  0  0  0  0  0  0
   -0.4659   45.1853   51.2423 H   0  0  0  0  0  0  0  0  0  0  0  0
    1.3392   45.4667   51.3557 H   0  0  0  0  0  0  0  0  0  0  0  0
   -0.2592   42.9881   51.9417 H   0  0  0  0  0  0  0  0  0  0  0  0
    1.2348   43.2636   50.8988 H   0  0  0  0  0  0  0  0  0  0  0  0
    1.5526   41.9030   52.9154 H   0  0  0  0  0  0  0  0  0  0  0  0
    3.6804   42.8028   53.5639 H   0  0  0  0  0  0  0  0  0  0  0  0
    3.3917   43.0804   51.7759 H   0  0  0  0  0  0  0  0  0  0  0  0
    3.0392   45.3525   52.0598 H   0  0  0  0  0  0  0  0  0  0  0  0
    5.3373   45.0503   53.9472 H   0  0  0  0  0  0  0  0  0  0  0  0
    6.6947   47.2939   53.2933 H   0  0  0  0  0  0  0  0  0  0  0  0
    9.0909   47.8076   53.7157 H   0  0  0  0  0  0  0  0  0  0  0  0
   10.8596   46.3298   52.7731 H   0  0  0  0  0  0  0  0  0  0  0  0
   10.2349   44.3327   51.4260 H   0  0  0  0  0  0  0  0  0  0  0  0
    6.9574   43.0431   49.0043 H   0  0  0  0  0  0  0  0  0  0  0  0
    7.7392   44.6651   49.1106 H   0  0  0  0  0  0  0  0  0  0  0  0
    9.0102   42.2676   49.7668 H   0  0  0  0  0  0  0  0  0  0  0  0
    9.8981   42.1467   47.0475 H   0  0  0  0  0  0  0  0  0  0  0  0
    8.8598   43.2058   46.5774 H   0  0  0  0  0  0  0  0  0  0  0  0
   11.2513   43.6435   48.6903 H   0  0  0  0  0  0  0  0  0  0  0  0
   10.4495   44.9644   48.5074 H   0  0  0  0  0  0  0  0  0  0  0  0
    3.2127   45.1511   55.0779 H   0  0  0  0  0  0  0  0  0  0  0  0
    2.7094   46.5552   54.0115 H   0  0  0  0  0  0  0  0  0  0  0  0
  1  2  1  0
  2  3  1  0
  3  4  1  0
  4  5  1  0
  5  6  1  0
  6  7  1  0
  7  8  1  0
  8  9  1  0
  9 10  1  0
 10 11  1  0
 11 12  2  0
 11 13  1  0
 13 14  2  0
 14 15  1  0
 15 16  2  0
 16 17  1  0
 17 18  2  0
 18 19  1  0
 19 20  1  0
 20 21  1  0
 21 22  1  0
 22 23  1  0
  9 24  1  0
  7  2  1  0
 18 13  1  0
 23 21  1  0
 24  3  1  0
  1 25  1  0
  1 26  1  0
  1 27  1  0
  2 28  1  0
  3 29  1  0
  4 30  1  0
  4 31  1  0
  5 32  1  0
  5 33  1  0
  6 34  1  0
  6 35  1  0
  7 36  1  0
  8 37  1  0
  8 38  1  0
  9 39  1  0
 10 40  1  0
 14 41  1  0
 15 42  1  0
 16 43  1  0
 17 44  1  0
 20 45  1  0
 20 46  1  0
 21 47  1  0
 22 48  1  0
 22 49  1  0
 23 50  1  0
 23 51  1  0
 24 52  1  0
 24 53  1  0
M  CHG  1   2   1
M  END
>  <meeko>  (145) 
{"is_sidechain": false}

>  <CID>  (145) 
Z1274688759

>  <pose_index>  (145) 
3

>  <docking_score>  (145) 
-8.49

>  <rmsd_to_best_selected>  (145) 
1.9359908128839252

>  <MWT>  (145) 
329.4639999999995

>  <TPSA>  (145) 
42.769999999999996

>  <logP>  (145) 
1.8034000000000001

>  <HBD>  (145) 
2

>  <HBA>  (145) 
2

>  <SMILES>  (145) 
[H]c1c([H])c([H])c(C(=O)N([H])C2([H])C([H])([H])C3([H])C([H])([H])C([H])([H])C([H])([H])C([H])(C2([H])[H])[N+]3([H])C([H])([H])[H])c(OC([H])([H])C2([H])C([H])([H])C2([H])[H])c1[H]

$$$$
Z1274688759_pose5
     RDKit          3D

 53 56  0  0  0  0  0  0  0  0999 V2000
    0.3032   42.8293   54.3868 C   0  0  0  0  0  0  0  0  0  0  0  0
    1.6253   43.3805   53.9182 N   0  0  0  0  0  4  0  0  0  0  0  0
    1.6333   44.8768   53.6889 C   0  0  0  0  0  0  0  0  0  0  0  0
    0.7831   45.2208   52.4601 C   0  0  0  0  0  0  0  0  0  0  0  0
    1.0834   44.4076   51.2035 C   0  0  0  0  0  0  0  0  0  0  0  0
    1.3896   42.9374   51.4759 C   0  0  0  0  0  0  0  0  0  0  0  0
    2.2226   42.6588   52.7317 C   0  0  0  0  0  0  0  0  0  0  0  0
    3.7007   43.0567   52.6382 C   0  0  0  0  0  0  0  0  0  0  0  0
    3.9415   44.5681   52.5881 C   0  0  0  0  0  0  0  0  0  0  0  0
    5.3550   44.8671   52.7589 N   0  0  0  0  0  0  0  0  0  0  0  0
    5.9662   45.8993   52.0750 C   0  0  0  0  0  0  0  0  0  0  0  0
    5.3292   46.6110   51.3034 O   0  0  0  0  0  0  0  0  0  0  0  0
    7.4325   46.1241   52.2995 C   0  0  0  0  0  0  0  0  0  0  0  0
    7.7861   47.3878   52.8110 C   0  0  0  0  0  0  0  0  0  0  0  0
    9.1173   47.7172   53.0530 C   0  0  0  0  0  0  0  0  0  0  0  0
   10.1131   46.7889   52.7814 C   0  0  0  0  0  0  0  0  0  0  0  0
    9.7816   45.5280   52.2756 C   0  0  0  0  0  0  0  0  0  0  0  0
    8.4446   45.1733   52.0400 C   0  0  0  0  0  0  0  0  0  0  0  0
    8.0656   43.9523   51.5390 O   0  0  0  0  0  0  0  0  0  0  0  0
    8.7039   43.4435   50.3618 C   0  0  0  0  0  0  0  0  0  0  0  0
    7.6824   43.0603   49.3339 C   0  0  0  0  0  0  0  0  0  0  0  0
    6.2178   43.2747   49.6226 C   0  0  0  0  0  0  0  0  0  0  0  0
    6.9011   44.1012   48.5713 C   0  0  0  0  0  0  0  0  0  0  0  0
    3.0954   45.3248   53.6207 C   0  0  0  0  0  0  0  0  0  0  0  0
   -0.2329   42.3877   53.5338 H   0  0  0  0  0  0  0  0  0  0  0  0
    0.4779   42.0566   55.1499 H   0  0  0  0  0  0  0  0  0  0  0  0
   -0.3003   43.6413   54.8186 H   0  0  0  0  0  0  0  0  0  0  0  0
    2.2547   43.2086   54.7153 H   0  0  0  0  0  0  0  0  0  0  0  0
    1.1645   45.4358   54.5121 H   0  0  0  0  0  0  0  0  0  0  0  0
   -0.2729   45.0602   52.7231 H   0  0  0  0  0  0  0  0  0  0  0  0
    1.0242   46.2642   52.2090 H   0  0  0  0  0  0  0  0  0  0  0  0
    0.2086   44.4616   50.5388 H   0  0  0  0  0  0  0  0  0  0  0  0
    1.9863   44.8428   50.7502 H   0  0  0  0  0  0  0  0  0  0  0  0
    0.4324   42.4053   51.5792 H   0  0  0  0  0  0  0  0  0  0  0  0
    1.9987   42.5934   50.6270 H   0  0  0  0  0  0  0  0  0  0  0  0
    2.1927   41.5651   52.8454 H   0  0  0  0  0  0  0  0  0  0  0  0
    4.2229   42.6532   53.5182 H   0  0  0  0  0  0  0  0  0  0  0  0
    4.0799   42.6445   51.6915 H   0  0  0  0  0  0  0  0  0  0  0  0
    3.6241   44.9163   51.5941 H   0  0  0  0  0  0  0  0  0  0  0  0
    5.9406   44.3299   53.3932 H   0  0  0  0  0  0  0  0  0  0  0  0
    6.9986   48.1260   53.0227 H   0  0  0  0  0  0  0  0  0  0  0  0
    9.3781   48.7066   53.4567 H   0  0  0  0  0  0  0  0  0  0  0  0
   11.1668   47.0462   52.9647 H   0  0  0  0  0  0  0  0  0  0  0  0
   10.5807   44.8037   52.0592 H   0  0  0  0  0  0  0  0  0  0  0  0
    9.3640   44.2182   49.9446 H   0  0  0  0  0  0  0  0  0  0  0  0
    9.2885   42.5517   50.6316 H   0  0  0  0  0  0  0  0  0  0  0  0
    8.3148   42.2086   49.0430 H   0  0  0  0  0  0  0  0  0  0  0  0
    5.4823   42.5111   49.3293 H   0  0  0  0  0  0  0  0  0  0  0  0
    5.6280   43.4973   50.5241 H   0  0  0  0  0  0  0  0  0  0  0  0
    6.6659   43.9425   47.5085 H   0  0  0  0  0  0  0  0  0  0  0  0
    7.0185   45.1789   48.3849 H   0  0  0  0  0  0  0  0  0  0  0  0
    3.5477   45.1756   54.6122 H   0  0  0  0  0  0  0  0  0  0  0  0
    3.0868   46.3794   53.3081 H   0  0  0  0  0  0  0  0  0  0  0  0
  1  2  1  0
  2  3  1  0
  3  4  1  0
  4  5  1  0
  5  6  1  0
  6  7  1  0
  7  8  1  0
  8  9  1  0
  9 10  1  0
 10 11  1  0
 11 12  2  0
 11 13  1  0
 13 14  2  0
 14 15  1  0
 15 16  2  0
 16 17  1  0
 17 18  2  0
 18 19  1  0
 19 20  1  0
 20 21  1  0
 21 22  1  0
 22 23  1  0
  9 24  1  0
  7  2  1  0
 18 13  1  0
 23 21  1  0
 24  3  1  0
  1 25  1  0
  1 26  1  0
  1 27  1  0
  2 28  1  0
  3 29  1  0
  4 30  1  0
  4 31  1  0
  5 32  1  0
  5 33  1  0
  6 34  1  0
  6 35  1  0
  7 36  1  0
  8 37  1  0
  8 38  1  0
  9 39  1  0
 10 40  1  0
 14 41  1  0
 15 42  1  0
 16 43  1  0
 17 44  1  0
 20 45  1  0
 20 46  1  0
 21 47  1  0
 22 48  1  0
 22 49  1  0
 23 50  1  0
 23 51  1  0
 24 52  1  0
 24 53  1  0
M  CHG  1   2   1
M  END
>  <meeko>  (146) 
{"is_sidechain": false}

>  <CID>  (146) 
Z1274688759

>  <pose_index>  (146) 
5

>  <docking_score>  (146) 
-7.915

>  <rmsd_to_best_selected>  (146) 
1.306636421935958

>  <MWT>  (146) 
329.4639999999995

>  <TPSA>  (146) 
42.769999999999996

>  <logP>  (146) 
1.8034000000000001

>  <HBD>  (146) 
2

>  <HBA>  (146) 
2

>  <SMILES>  (146) 
[H]c1c([H])c([H])c(C(=O)N([H])C2([H])C([H])([H])C3([H])C([H])([H])C([H])([H])C([H])([H])C([H])(C2([H])[H])[N+]3([H])C([H])([H])[H])c(OC([H])([H])C2([H])C([H])([H])C2([H])[H])c1[H]

$$$$
Z1274688759_pose7
     RDKit          3D

 53 56  0  0  0  0  0  0  0  0999 V2000
    1.0757   42.2648   54.2450 C   0  0  0  0  0  0  0  0  0  0  0  0
    2.1156   43.1973   53.6792 N   0  0  0  0  0  4  0  0  0  0  0  0
    1.8470   44.6635   53.9388 C   0  0  0  0  0  0  0  0  0  0  0  0
    0.6395   45.1276   53.1175 C   0  0  0  0  0  0  0  0  0  0  0  0
    0.6743   44.7650   51.6348 C   0  0  0  0  0  0  0  0  0  0  0  0
    1.2487   43.3805   51.3486 C   0  0  0  0  0  0  0  0  0  0  0  0
    2.4390   42.9675   52.2214 C   0  0  0  0  0  0  0  0  0  0  0  0
    3.7554   43.6913   51.9142 C   0  0  0  0  0  0  0  0  0  0  0  0
    3.7587   45.1748   52.2898 C   0  0  0  0  0  0  0  0  0  0  0  0
    5.1042   45.7212   52.2111 N   0  0  0  0  0  0  0  0  0  0  0  0
    6.1326   45.2362   52.9955 C   0  0  0  0  0  0  0  0  0  0  0  0
    5.9451   44.3118   53.7825 O   0  0  0  0  0  0  0  0  0  0  0  0
    7.4846   45.8736   52.8605 C   0  0  0  0  0  0  0  0  0  0  0  0
    8.0308   46.4039   54.0453 C   0  0  0  0  0  0  0  0  0  0  0  0
    9.2763   47.0278   54.0442 C   0  0  0  0  0  0  0  0  0  0  0  0
    9.9887   47.1335   52.8573 C   0  0  0  0  0  0  0  0  0  0  0  0
    9.4638   46.6106   51.6717 C   0  0  0  0  0  0  0  0  0  0  0  0
    8.2177   45.9658   51.6564 C   0  0  0  0  0  0  0  0  0  0  0  0
    7.6541   45.4408   50.5194 O   0  0  0  0  0  0  0  0  0  0  0  0
    8.0985   44.1678   50.0338 C   0  0  0  0  0  0  0  0  0  0  0  0
    7.1966   43.6788   48.9411 C   0  0  0  0  0  0  0  0  0  0  0  0
    7.3056   42.2511   48.4666 C   0  0  0  0  0  0  0  0  0  0  0  0
    6.0824   42.6999   49.2157 C   0  0  0  0  0  0  0  0  0  0  0  0
    3.1490   45.4234   53.6769 C   0  0  0  0  0  0  0  0  0  0  0  0
    0.2611   42.8526   54.6932 H   0  0  0  0  0  0  0  0  0  0  0  0
    0.6723   41.6335   53.4396 H   0  0  0  0  0  0  0  0  0  0  0  0
    1.5349   41.6276   55.0152 H   0  0  0  0  0  0  0  0  0  0  0  0
    2.9657   42.9619   54.2104 H   0  0  0  0  0  0  0  0  0  0  0  0
    1.5617   44.8647   54.9819 H   0  0  0  0  0  0  0  0  0  0  0  0
   -0.2624   44.6756   53.5559 H   0  0  0  0  0  0  0  0  0  0  0  0
    0.6501   46.2268   53.1598 H   0  0  0  0  0  0  0  0  0  0  0  0
   -0.3540   44.8002   51.2458 H   0  0  0  0  0  0  0  0  0  0  0  0
    1.3375   45.4927   51.1443 H   0  0  0  0  0  0  0  0  0  0  0  0
    0.4465   42.6429   51.4983 H   0  0  0  0  0  0  0  0  0  0  0  0
    1.6289   43.4182   50.3170 H   0  0  0  0  0  0  0  0  0  0  0  0
    2.5964   41.9039   51.9891 H   0  0  0  0  0  0  0  0  0  0  0  0
    4.5616   43.1926   52.4722 H   0  0  0  0  0  0  0  0  0  0  0  0
    3.8967   43.6411   50.8245 H   0  0  0  0  0  0  0  0  0  0  0  0
    3.1227   45.6969   51.5597 H   0  0  0  0  0  0  0  0  0  0  0  0
    5.3369   46.4767   51.5706 H   0  0  0  0  0  0  0  0  0  0  0  0
    7.4655   46.3243   54.9856 H   0  0  0  0  0  0  0  0  0  0  0  0
    9.6927   47.4342   54.9778 H   0  0  0  0  0  0  0  0  0  0  0  0
   10.9699   47.6305   52.8497 H   0  0  0  0  0  0  0  0  0  0  0  0
   10.0361   46.7061   50.7372 H   0  0  0  0  0  0  0  0  0  0  0  0
    9.1214   44.2669   49.6417 H   0  0  0  0  0  0  0  0  0  0  0  0
    8.0783   43.4443   50.8621 H   0  0  0  0  0  0  0  0  0  0  0  0
    7.2473   44.6733   48.4737 H   0  0  0  0  0  0  0  0  0  0  0  0
    7.2394   42.0222   47.3927 H   0  0  0  0  0  0  0  0  0  0  0  0
    8.0422   41.4440   48.5936 H   0  0  0  0  0  0  0  0  0  0  0  0
    5.1214   42.7993   48.6898 H   0  0  0  0  0  0  0  0  0  0  0  0
    5.5540   42.3570   50.1174 H   0  0  0  0  0  0  0  0  0  0  0  0
    3.8844   45.1183   54.4359 H   0  0  0  0  0  0  0  0  0  0  0  0
    2.9034   46.4945   53.7252 H   0  0  0  0  0  0  0  0  0  0  0  0
  1  2  1  0
  2  3  1  0
  3  4  1  0
  4  5  1  0
  5  6  1  0
  6  7  1  0
  7  8  1  0
  8  9  1  0
  9 10  1  0
 10 11  1  0
 11 12  2  0
 11 13  1  0
 13 14  2  0
 14 15  1  0
 15 16  2  0
 16 17  1  0
 17 18  2  0
 18 19  1  0
 19 20  1  0
 20 21  1  0
 21 22  1  0
 22 23  1  0
  9 24  1  0
  7  2  1  0
 18 13  1  0
 23 21  1  0
 24  3  1  0
  1 25  1  0
  1 26  1  0
  1 27  1  0
  2 28  1  0
  3 29  1  0
  4 30  1  0
  4 31  1  0
  5 32  1  0
  5 33  1  0
  6 34  1  0
  6 35  1  0
  7 36  1  0
  8 37  1  0
  8 38  1  0
  9 39  1  0
 10 40  1  0
 14 41  1  0
 15 42  1  0
 16 43  1  0
 17 44  1  0
 20 45  1  0
 20 46  1  0
 21 47  1  0
 22 48  1  0
 22 49  1  0
 23 50  1  0
 23 51  1  0
 24 52  1  0
 24 53  1  0
M  CHG  1   2   1
M  END
>  <meeko>  (147) 
{"is_sidechain": false}

>  <CID>  (147) 
Z1274688759

>  <pose_index>  (147) 
7

>  <docking_score>  (147) 
-7.278

>  <rmsd_to_best_selected>  (147) 
1.0594099157544419

>  <MWT>  (147) 
329.4639999999995

>  <TPSA>  (147) 
42.769999999999996

>  <logP>  (147) 
1.8034000000000001

>  <HBD>  (147) 
2

>  <HBA>  (147) 
2

>  <SMILES>  (147) 
[H]c1c([H])c([H])c(C(=O)N([H])C2([H])C([H])([H])C3([H])C([H])([H])C([H])([H])C([H])([H])C([H])(C2([H])[H])[N+]3([H])C([H])([H])[H])c(OC([H])([H])C2([H])C([H])([H])C2([H])[H])c1[H]

$$$$
Z1274688759_pose8
     RDKit          3D

 53 56  0  0  0  0  0  0  0  0999 V2000
    0.1227   42.7674   54.9209 C   0  0  0  0  0  0  0  0  0  0  0  0
    1.4142   43.2971   54.3509 N   0  0  0  0  0  4  0  0  0  0  0  0
    1.5212   44.8064   54.3442 C   0  0  0  0  0  0  0  0  0  0  0  0
    0.5482   45.3962   53.3164 C   0  0  0  0  0  0  0  0  0  0  0  0
    0.6051   44.7718   51.9239 C   0  0  0  0  0  0  0  0  0  0  0  0
    0.8163   43.2604   51.9304 C   0  0  0  0  0  0  0  0  0  0  0  0
    1.7820   42.7335   52.9974 C   0  0  0  0  0  0  0  0  0  0  0  0
    3.2633   43.0438   52.7479 C   0  0  0  0  0  0  0  0  0  0  0  0
    3.6259   44.5242   52.8868 C   0  0  0  0  0  0  0  0  0  0  0  0
    5.0702   44.7003   52.8928 N   0  0  0  0  0  0  0  0  0  0  0  0
    5.6755   45.7592   52.2460 C   0  0  0  0  0  0  0  0  0  0  0  0
    5.0073   46.6014   51.6511 O   0  0  0  0  0  0  0  0  0  0  0  0
    7.1724   45.8503   52.2892 C   0  0  0  0  0  0  0  0  0  0  0  0
    7.6977   46.9327   53.0206 C   0  0  0  0  0  0  0  0  0  0  0  0
    9.0733   47.1283   53.1259 C   0  0  0  0  0  0  0  0  0  0  0  0
    9.9404   46.2464   52.4956 C   0  0  0  0  0  0  0  0  0  0  0  0
    9.4370   45.1632   51.7668 C   0  0  0  0  0  0  0  0  0  0  0  0
    8.0554   44.9426   51.6628 C   0  0  0  0  0  0  0  0  0  0  0  0
    7.5092   43.9009   50.9549 O   0  0  0  0  0  0  0  0  0  0  0  0
    7.3593   44.0138   49.5340 C   0  0  0  0  0  0  0  0  0  0  0  0
    8.5604   43.4579   48.8332 C   0  0  0  0  0  0  0  0  0  0  0  0
    8.5314   43.2711   47.3365 C   0  0  0  0  0  0  0  0  0  0  0  0
    9.4242   44.3162   47.9429 C   0  0  0  0  0  0  0  0  0  0  0  0
    2.9943   45.1637   54.1311 C   0  0  0  0  0  0  0  0  0  0  0  0
   -0.1132   41.7987   54.4561 H   0  0  0  0  0  0  0  0  0  0  0  0
    0.2280   42.6366   56.0080 H   0  0  0  0  0  0  0  0  0  0  0  0
   -0.6890   43.4805   54.7144 H   0  0  0  0  0  0  0  0  0  0  0  0
    2.1265   42.9613   55.0142 H   0  0  0  0  0  0  0  0  0  0  0  0
    1.2161   45.2569   55.3003 H   0  0  0  0  0  0  0  0  0  0  0  0
   -0.4732   45.2678   53.7040 H   0  0  0  0  0  0  0  0  0  0  0  0
    0.8448   46.4477   53.1884 H   0  0  0  0  0  0  0  0  0  0  0  0
   -0.3432   44.9865   51.4094 H   0  0  0  0  0  0  0  0  0  0  0  0
    1.4733   45.2127   51.4123 H   0  0  0  0  0  0  0  0  0  0  0  0
   -0.1611   42.7824   52.0923 H   0  0  0  0  0  0  0  0  0  0  0  0
    1.2747   43.0155   50.9610 H   0  0  0  0  0  0  0  0  0  0  0  0
    1.6723   41.6399   52.9540 H   0  0  0  0  0  0  0  0  0  0  0  0
    3.8623   42.4724   53.4722 H   0  0  0  0  0  0  0  0  0  0  0  0
    3.4739   42.7632   51.7054 H   0  0  0  0  0  0  0  0  0  0  0  0
    3.2095   45.0439   52.0113 H   0  0  0  0  0  0  0  0  0  0  0  0
    5.6844   44.0502   53.3777 H   0  0  0  0  0  0  0  0  0  0  0  0
    7.0114   47.6348   53.5167 H   0  0  0  0  0  0  0  0  0  0  0  0
    9.4693   47.9757   53.7046 H   0  0  0  0  0  0  0  0  0  0  0  0
   11.0272   46.3997   52.5693 H   0  0  0  0  0  0  0  0  0  0  0  0
   10.1348   44.4744   51.2682 H   0  0  0  0  0  0  0  0  0  0  0  0
    6.4657   43.4550   49.2189 H   0  0  0  0  0  0  0  0  0  0  0  0
    7.2547   45.0767   49.2709 H   0  0  0  0  0  0  0  0  0  0  0  0
    8.7553   42.8180   49.7065 H   0  0  0  0  0  0  0  0  0  0  0  0
    8.9694   42.3679   46.8866 H   0  0  0  0  0  0  0  0  0  0  0  0
    7.7440   43.2725   46.5683 H   0  0  0  0  0  0  0  0  0  0  0  0
   10.5154   44.1777   47.9368 H   0  0  0  0  0  0  0  0  0  0  0  0
    9.5603   45.3987   47.8021 H   0  0  0  0  0  0  0  0  0  0  0  0
    3.5605   44.8320   55.0140 H   0  0  0  0  0  0  0  0  0  0  0  0
    3.0358   46.2527   53.9810 H   0  0  0  0  0  0  0  0  0  0  0  0
  1  2  1  0
  2  3  1  0
  3  4  1  0
  4  5  1  0
  5  6  1  0
  6  7  1  0
  7  8  1  0
  8  9  1  0
  9 10  1  0
 10 11  1  0
 11 12  2  0
 11 13  1  0
 13 14  2  0
 14 15  1  0
 15 16  2  0
 16 17  1  0
 17 18  2  0
 18 19  1  0
 19 20  1  0
 20 21  1  0
 21 22  1  0
 22 23  1  0
  9 24  1  0
  7  2  1  0
 18 13  1  0
 23 21  1  0
 24  3  1  0
  1 25  1  0
  1 26  1  0
  1 27  1  0
  2 28  1  0
  3 29  1  0
  4 30  1  0
  4 31  1  0
  5 32  1  0
  5 33  1  0
  6 34  1  0
  6 35  1  0
  7 36  1  0
  8 37  1  0
  8 38  1  0
  9 39  1  0
 10 40  1  0
 14 41  1  0
 15 42  1  0
 16 43  1  0
 17 44  1  0
 20 45  1  0
 20 46  1  0
 21 47  1  0
 22 48  1  0
 22 49  1  0
 23 50  1  0
 23 51  1  0
 24 52  1  0
 24 53  1  0
M  CHG  1   2   1
M  END
>  <meeko>  (148) 
{"is_sidechain": false}

>  <CID>  (148) 
Z1274688759

>  <pose_index>  (148) 
8

>  <docking_score>  (148) 
-7.219

>  <rmsd_to_best_selected>  (148) 
1.7440708205909197

>  <MWT>  (148) 
329.4639999999995

>  <TPSA>  (148) 
42.769999999999996

>  <logP>  (148) 
1.8034000000000001

>  <HBD>  (148) 
2

>  <HBA>  (148) 
2

>  <SMILES>  (148) 
[H]c1c([H])c([H])c(C(=O)N([H])C2([H])C([H])([H])C3([H])C([H])([H])C([H])([H])C([H])([H])C([H])(C2([H])[H])[N+]3([H])C([H])([H])[H])c(OC([H])([H])C2([H])C([H])([H])C2([H])[H])c1[H]

$$$$
Z1381816014_pose1
     RDKit          3D

 46 48  0  0  0  0  0  0  0  0999 V2000
    3.2700   47.1800   51.7300 O   0  0  0  0  0  0  0  0  0  0  0  0
    3.7010   46.4480   52.6170 C   0  0  0  0  0  0  0  0  0  0  0  0
    4.9800   45.9170   52.6040 N   0  0  0  0  0  0  0  0  0  0  0  0
    6.0030   46.3430   51.6590 C   0  0  0  0  0  0  0  0  0  0  0  0
    7.2190   46.9530   52.3910 C   0  0  0  0  0  0  0  0  0  0  0  0
    7.3110   46.7090   53.8930 C   0  0  0  0  0  0  0  0  0  0  0  0
    6.3260   47.4550   54.5970 O   0  0  0  0  0  0  0  0  0  0  0  0
    6.2820   45.2410   50.5990 C   0  0  0  0  0  0  0  0  0  0  0  0
    7.7780   44.9410   50.4290 C   0  0  0  0  0  0  0  0  0  0  0  0
    8.0520   44.0560   49.2090 C   0  0  0  0  0  0  0  0  0  0  0  0
    6.9280   43.0660   48.9030 C   0  0  0  0  0  0  0  0  0  0  0  0
    6.1320   42.7100   50.1490 C   0  0  0  0  0  0  0  0  0  0  0  0
    5.4640   43.9410   50.7670 C   0  0  0  0  0  0  0  0  0  0  0  0
    2.9320   46.0660   53.8120 C   0  0  0  0  0  0  0  0  0  0  0  0
    3.4490   46.0460   55.0510 N   0  0  0  0  0  0  0  0  0  0  0  0
    2.3860   45.6230   55.8450 O   0  0  0  0  0  0  0  0  0  0  0  0
    1.3230   45.4180   55.0120 C   0  0  0  0  0  0  0  0  0  0  0  0
    0.0840   44.9610   55.6120 C   0  0  0  0  0  0  0  0  0  0  0  0
   -0.8420   44.2260   54.8640 C   0  0  0  0  0  0  0  0  0  0  0  0
   -2.0290   43.7910   55.4510 C   0  0  0  0  0  0  0  0  0  0  0  0
   -2.2580   44.1040   56.7800 C   0  0  0  0  0  0  0  0  0  0  0  0
   -1.3930   44.8100   57.5380 N   0  0  0  0  0  0  0  0  0  0  0  0
   -0.2470   45.2210   56.9400 C   0  0  0  0  0  0  0  0  0  0  0  0
    1.6030   45.6710   53.7510 N   0  0  0  0  0  0  0  0  0  0  0  0
    5.2930   45.5170   53.4880 H   0  0  0  0  0  0  0  0  0  0  0  0
    5.6374   47.1824   51.0492 H   0  0  0  0  0  0  0  0  0  0  0  0
    8.1274   46.5377   51.9302 H   0  0  0  0  0  0  0  0  0  0  0  0
    7.1034   48.0416   52.2830 H   0  0  0  0  0  0  0  0  0  0  0  0
    7.1600   45.6378   54.0923 H   0  0  0  0  0  0  0  0  0  0  0  0
    8.3044   47.0317   54.2379 H   0  0  0  0  0  0  0  0  0  0  0  0
    6.0650   46.9240   55.3710 H   0  0  0  0  0  0  0  0  0  0  0  0
    5.9170   45.6916   49.6643 H   0  0  0  0  0  0  0  0  0  0  0  0
    8.3189   45.8910   50.3070 H   0  0  0  0  0  0  0  0  0  0  0  0
    8.1194   44.4002   51.3240 H   0  0  0  0  0  0  0  0  0  0  0  0
    8.1904   44.7061   48.3325 H   0  0  0  0  0  0  0  0  0  0  0  0
    8.9496   43.4626   49.4374 H   0  0  0  0  0  0  0  0  0  0  0  0
    6.2491   43.5160   48.1636 H   0  0  0  0  0  0  0  0  0  0  0  0
    7.3827   42.1433   48.5134 H   0  0  0  0  0  0  0  0  0  0  0  0
    5.3542   41.9808   49.8785 H   0  0  0  0  0  0  0  0  0  0  0  0
    6.8271   42.2893   50.8905 H   0  0  0  0  0  0  0  0  0  0  0  0
    4.4845   44.0825   50.2869 H   0  0  0  0  0  0  0  0  0  0  0  0
    5.3783   43.7522   51.8473 H   0  0  0  0  0  0  0  0  0  0  0  0
   -0.6328   43.9908   53.8100 H   0  0  0  0  0  0  0  0  0  0  0  0
   -2.7653   43.2135   54.8728 H   0  0  0  0  0  0  0  0  0  0  0  0
   -3.1945   43.7590   57.2426 H   0  0  0  0  0  0  0  0  0  0  0  0
    0.4687   45.7981   57.5439 H   0  0  0  0  0  0  0  0  0  0  0  0
  1  2  2  0
  2  3  1  0
  3  4  1  0
  4  5  1  0
  5  6  1  0
  6  7  1  0
  4  8  1  0
  8  9  1  0
  9 10  1  0
 10 11  1  0
 11 12  1  0
 12 13  1  0
  2 14  1  0
 14 15  2  0
 15 16  1  0
 16 17  1  0
 17 18  1  0
 18 19  2  0
 19 20  1  0
 20 21  2  0
 21 22  1  0
 22 23  2  0
 17 24  2  0
 13  8  1  0
 24 14  1  0
 23 18  1  0
  3 25  1  0
  4 26  1  0
  5 27  1  0
  5 28  1  0
  6 29  1  0
  6 30  1  0
  7 31  1  0
  8 32  1  0
  9 33  1  0
  9 34  1  0
 10 35  1  0
 10 36  1  0
 11 37  1  0
 11 38  1  0
 12 39  1  0
 12 40  1  0
 13 41  1  0
 13 42  1  0
 19 43  1  0
 20 44  1  0
 21 45  1  0
 23 46  1  0
M  END
>  <meeko>  (149) 
{"is_sidechain": false}

>  <CID>  (149) 
Z1381816014

>  <pose_index>  (149) 
1

>  <docking_score>  (149) 
-7.918

>  <rmsd_to_best_selected>  (149) 
0.0

>  <MWT>  (149) 
330.3879999999996

>  <TPSA>  (149) 
101.14

>  <logP>  (149) 
2.1926999999999994

>  <HBD>  (149) 
2

>  <HBA>  (149) 
6

>  <SMILES>  (149) 
[H]OC([H])([H])C([H])([H])C([H])(N([H])C(=O)c1noc(-c2c([H])nc([H])c([H])c2[H])n1)C1([H])C([H])([H])C([H])([H])C([H])([H])C([H])([H])C1([H])[H]

$$$$
Z1381816014_pose2
     RDKit          3D

 46 48  0  0  0  0  0  0  0  0999 V2000
    3.3668   47.0717   51.2671 O   0  0  0  0  0  0  0  0  0  0  0  0
    3.4487   46.1116   52.0279 C   0  0  0  0  0  0  0  0  0  0  0  0
    4.6403   45.4578   52.2920 N   0  0  0  0  0  0  0  0  0  0  0  0
    5.9356   45.9724   51.8687 C   0  0  0  0  0  0  0  0  0  0  0  0
    6.8937   46.1291   53.0712 C   0  0  0  0  0  0  0  0  0  0  0  0
    6.2717   46.5589   54.3944 C   0  0  0  0  0  0  0  0  0  0  0  0
    5.6237   45.4684   55.0381 O   0  0  0  0  0  0  0  0  0  0  0  0
    6.4644   45.2050   50.6245 C   0  0  0  0  0  0  0  0  0  0  0  0
    7.9967   45.1447   50.5670 C   0  0  0  0  0  0  0  0  0  0  0  0
    8.5015   44.6257   49.2176 C   0  0  0  0  0  0  0  0  0  0  0  0
    7.5684   43.6074   48.5623 C   0  0  0  0  0  0  0  0  0  0  0  0
    6.7318   42.8618   49.5909 C   0  0  0  0  0  0  0  0  0  0  0  0
    5.8377   43.8124   50.3923 C   0  0  0  0  0  0  0  0  0  0  0  0
    2.3094   45.5540   52.7728 C   0  0  0  0  0  0  0  0  0  0  0  0
    1.4742   44.6306   52.2700 N   0  0  0  0  0  0  0  0  0  0  0  0
    0.5629   44.4149   53.2996 O   0  0  0  0  0  0  0  0  0  0  0  0
    0.9248   45.2340   54.3306 C   0  0  0  0  0  0  0  0  0  0  0  0
    0.1104   45.1941   55.5317 C   0  0  0  0  0  0  0  0  0  0  0  0
   -0.8026   44.1548   55.7395 C   0  0  0  0  0  0  0  0  0  0  0  0
   -1.5797   44.1254   56.8959 C   0  0  0  0  0  0  0  0  0  0  0  0
   -1.4190   45.1436   57.8199 C   0  0  0  0  0  0  0  0  0  0  0  0
   -0.5517   46.1647   57.6607 N   0  0  0  0  0  0  0  0  0  0  0  0
    0.1902   46.1676   56.5251 C   0  0  0  0  0  0  0  0  0  0  0  0
    1.9881   45.9604   54.0611 N   0  0  0  0  0  0  0  0  0  0  0  0
    4.6228   44.8328   53.0974 H   0  0  0  0  0  0  0  0  0  0  0  0
    5.8376   47.0034   51.4978 H   0  0  0  0  0  0  0  0  0  0  0  0
    7.3847   45.1583   53.2341 H   0  0  0  0  0  0  0  0  0  0  0  0
    7.5729   46.9485   52.7930 H   0  0  0  0  0  0  0  0  0  0  0  0
    7.0629   46.9456   55.0536 H   0  0  0  0  0  0  0  0  0  0  0  0
    5.5218   47.3372   54.1895 H   0  0  0  0  0  0  0  0  0  0  0  0
    4.9400   45.8463   55.6189 H   0  0  0  0  0  0  0  0  0  0  0  0
    6.1168   45.8204   49.7816 H   0  0  0  0  0  0  0  0  0  0  0  0
    8.3981   46.1556   50.7310 H   0  0  0  0  0  0  0  0  0  0  0  0
    8.3382   44.4487   51.3473 H   0  0  0  0  0  0  0  0  0  0  0  0
    8.6142   45.4820   48.5364 H   0  0  0  0  0  0  0  0  0  0  0  0
    9.4553   44.1117   49.4075 H   0  0  0  0  0  0  0  0  0  0  0  0
    6.8949   44.1353   47.8711 H   0  0  0  0  0  0  0  0  0  0  0  0
    8.1874   42.8718   48.0279 H   0  0  0  0  0  0  0  0  0  0  0  0
    6.0970   42.1295   49.0705 H   0  0  0  0  0  0  0  0  0  0  0  0
    7.4165   42.3628   50.2924 H   0  0  0  0  0  0  0  0  0  0  0  0
    4.8921   43.9437   49.8457 H   0  0  0  0  0  0  0  0  0  0  0  0
    5.6897   43.3569   51.3826 H   0  0  0  0  0  0  0  0  0  0  0  0
   -0.9073   43.3584   54.9879 H   0  0  0  0  0  0  0  0  0  0  0  0
   -2.3020   43.3142   57.0700 H   0  0  0  0  0  0  0  0  0  0  0  0
   -2.0316   45.1189   58.7332 H   0  0  0  0  0  0  0  0  0  0  0  0
    0.9020   46.9934   56.3788 H   0  0  0  0  0  0  0  0  0  0  0  0
  1  2  2  0
  2  3  1  0
  3  4  1  0
  4  5  1  0
  5  6  1  0
  6  7  1  0
  4  8  1  0
  8  9  1  0
  9 10  1  0
 10 11  1  0
 11 12  1  0
 12 13  1  0
  2 14  1  0
 14 15  2  0
 15 16  1  0
 16 17  1  0
 17 18  1  0
 18 19  2  0
 19 20  1  0
 20 21  2  0
 21 22  1  0
 22 23  2  0
 17 24  2  0
 13  8  1  0
 24 14  1  0
 23 18  1  0
  3 25  1  0
  4 26  1  0
  5 27  1  0
  5 28  1  0
  6 29  1  0
  6 30  1  0
  7 31  1  0
  8 32  1  0
  9 33  1  0
  9 34  1  0
 10 35  1  0
 10 36  1  0
 11 37  1  0
 11 38  1  0
 12 39  1  0
 12 40  1  0
 13 41  1  0
 13 42  1  0
 19 43  1  0
 20 44  1  0
 21 45  1  0
 23 46  1  0
M  END
>  <meeko>  (150) 
{"is_sidechain": false}

>  <CID>  (150) 
Z1381816014

>  <pose_index>  (150) 
2

>  <docking_score>  (150) 
-7.784

>  <rmsd_to_best_selected>  (150) 
1.3858904657881062

>  <MWT>  (150) 
330.3879999999996

>  <TPSA>  (150) 
101.14

>  <logP>  (150) 
2.1926999999999994

>  <HBD>  (150) 
2

>  <HBA>  (150) 
6

>  <SMILES>  (150) 
[H]OC([H])([H])C([H])([H])C([H])(N([H])C(=O)c1noc(-c2c([H])nc([H])c([H])c2[H])n1)C1([H])C([H])([H])C([H])([H])C([H])([H])C([H])([H])C1([H])[H]

$$$$
Z1381816014_pose3
     RDKit          3D

 46 48  0  0  0  0  0  0  0  0999 V2000
    3.4847   47.2036   51.2538 O   0  0  0  0  0  0  0  0  0  0  0  0
    3.4127   46.2337   52.0027 C   0  0  0  0  0  0  0  0  0  0  0  0
    4.5006   45.4350   52.3125 N   0  0  0  0  0  0  0  0  0  0  0  0
    5.8686   45.7908   51.9585 C   0  0  0  0  0  0  0  0  0  0  0  0
    6.7617   45.8919   53.2151 C   0  0  0  0  0  0  0  0  0  0  0  0
    6.1607   45.4023   54.5268 C   0  0  0  0  0  0  0  0  0  0  0  0
    5.1681   46.2994   55.0060 O   0  0  0  0  0  0  0  0  0  0  0  0
    6.3854   44.9217   50.7778 C   0  0  0  0  0  0  0  0  0  0  0  0
    7.2635   45.7101   49.7961 C   0  0  0  0  0  0  0  0  0  0  0  0
    7.5429   44.9211   48.5132 C   0  0  0  0  0  0  0  0  0  0  0  0
    7.6218   43.4092   48.7266 C   0  0  0  0  0  0  0  0  0  0  0  0
    8.0455   43.0588   50.1440 C   0  0  0  0  0  0  0  0  0  0  0  0
    7.0528   43.5876   51.1816 C   0  0  0  0  0  0  0  0  0  0  0  0
    2.1785   45.8139   52.6850 C   0  0  0  0  0  0  0  0  0  0  0  0
    1.0902   45.3645   52.0393 N   0  0  0  0  0  0  0  0  0  0  0  0
    0.1842   45.1021   53.0642 O   0  0  0  0  0  0  0  0  0  0  0  0
    0.8051   45.4237   54.2368 C   0  0  0  0  0  0  0  0  0  0  0  0
    0.0501   45.2416   55.4634 C   0  0  0  0  0  0  0  0  0  0  0  0
   -1.3480   45.2867   55.4529 C   0  0  0  0  0  0  0  0  0  0  0  0
   -2.0634   45.1083   56.6349 C   0  0  0  0  0  0  0  0  0  0  0  0
   -1.3548   44.8886   57.8038 C   0  0  0  0  0  0  0  0  0  0  0  0
   -0.0077   44.8380   57.8600 N   0  0  0  0  0  0  0  0  0  0  0  0
    0.6619   45.0147   56.6933 C   0  0  0  0  0  0  0  0  0  0  0  0
    2.0307   45.8706   54.0636 N   0  0  0  0  0  0  0  0  0  0  0  0
    4.3675   44.8099   53.1066 H   0  0  0  0  0  0  0  0  0  0  0  0
    5.9076   46.8107   51.5483 H   0  0  0  0  0  0  0  0  0  0  0  0
    7.6709   45.3026   53.0253 H   0  0  0  0  0  0  0  0  0  0  0  0
    6.9321   46.9688   53.3610 H   0  0  0  0  0  0  0  0  0  0  0  0
    5.7035   44.4150   54.3651 H   0  0  0  0  0  0  0  0  0  0  0  0
    6.9642   45.3409   55.2756 H   0  0  0  0  0  0  0  0  0  0  0  0
    5.6314   47.0061   55.4902 H   0  0  0  0  0  0  0  0  0  0  0  0
    5.4622   44.6338   50.2535 H   0  0  0  0  0  0  0  0  0  0  0  0
    6.7489   46.6459   49.5323 H   0  0  0  0  0  0  0  0  0  0  0  0
    8.2269   45.9101   50.2879 H   0  0  0  0  0  0  0  0  0  0  0  0
    6.7360   45.1288   47.7951 H   0  0  0  0  0  0  0  0  0  0  0  0
    8.5270   45.2455   48.1441 H   0  0  0  0  0  0  0  0  0  0  0  0
    6.6320   42.9704   48.5324 H   0  0  0  0  0  0  0  0  0  0  0  0
    8.3766   43.0060   48.0354 H   0  0  0  0  0  0  0  0  0  0  0  0
    8.1080   41.9644   50.2365 H   0  0  0  0  0  0  0  0  0  0  0  0
    9.0217   43.5283   50.3348 H   0  0  0  0  0  0  0  0  0  0  0  0
    6.2644   42.8338   51.3240 H   0  0  0  0  0  0  0  0  0  0  0  0
    7.6217   43.7784   52.1035 H   0  0  0  0  0  0  0  0  0  0  0  0
   -1.8839   45.4636   54.5087 H   0  0  0  0  0  0  0  0  0  0  0  0
   -3.1629   45.1411   56.6393 H   0  0  0  0  0  0  0  0  0  0  0  0
   -1.9204   44.7478   58.7367 H   0  0  0  0  0  0  0  0  0  0  0  0
    1.7609   44.9762   56.7209 H   0  0  0  0  0  0  0  0  0  0  0  0
  1  2  2  0
  2  3  1  0
  3  4  1  0
  4  5  1  0
  5  6  1  0
  6  7  1  0
  4  8  1  0
  8  9  1  0
  9 10  1  0
 10 11  1  0
 11 12  1  0
 12 13  1  0
  2 14  1  0
 14 15  2  0
 15 16  1  0
 16 17  1  0
 17 18  1  0
 18 19  2  0
 19 20  1  0
 20 21  2  0
 21 22  1  0
 22 23  2  0
 17 24  2  0
 13  8  1  0
 24 14  1  0
 23 18  1  0
  3 25  1  0
  4 26  1  0
  5 27  1  0
  5 28  1  0
  6 29  1  0
  6 30  1  0
  7 31  1  0
  8 32  1  0
  9 33  1  0
  9 34  1  0
 10 35  1  0
 10 36  1  0
 11 37  1  0
 11 38  1  0
 12 39  1  0
 12 40  1  0
 13 41  1  0
 13 42  1  0
 19 43  1  0
 20 44  1  0
 21 45  1  0
 23 46  1  0
M  END
>  <meeko>  (151) 
{"is_sidechain": false}

>  <CID>  (151) 
Z1381816014

>  <pose_index>  (151) 
3

>  <docking_score>  (151) 
-7.547

>  <rmsd_to_best_selected>  (151) 
1.7530750855623516

>  <MWT>  (151) 
330.3879999999996

>  <TPSA>  (151) 
101.14

>  <logP>  (151) 
2.1926999999999994

>  <HBD>  (151) 
2

>  <HBA>  (151) 
6

>  <SMILES>  (151) 
[H]OC([H])([H])C([H])([H])C([H])(N([H])C(=O)c1noc(-c2c([H])nc([H])c([H])c2[H])n1)C1([H])C([H])([H])C([H])([H])C([H])([H])C([H])([H])C1([H])[H]

$$$$
Z1381816014_pose5
     RDKit          3D

 46 48  0  0  0  0  0  0  0  0999 V2000
    3.0874   47.0311   51.8383 O   0  0  0  0  0  0  0  0  0  0  0  0
    3.4114   45.9642   52.3526 C   0  0  0  0  0  0  0  0  0  0  0  0
    4.6492   45.3755   52.1556 N   0  0  0  0  0  0  0  0  0  0  0  0
    5.7561   46.0617   51.5032 C   0  0  0  0  0  0  0  0  0  0  0  0
    6.6402   46.7988   52.5336 C   0  0  0  0  0  0  0  0  0  0  0  0
    5.9558   47.2807   53.8072 C   0  0  0  0  0  0  0  0  0  0  0  0
    5.8658   46.2394   54.7695 O   0  0  0  0  0  0  0  0  0  0  0  0
    6.4674   45.1307   50.4815 C   0  0  0  0  0  0  0  0  0  0  0  0
    7.9896   45.3275   50.4549 C   0  0  0  0  0  0  0  0  0  0  0  0
    8.6421   44.6057   49.2720 C   0  0  0  0  0  0  0  0  0  0  0  0
    7.9269   43.3159   48.8672 C   0  0  0  0  0  0  0  0  0  0  0  0
    7.1761   42.6960   50.0354 C   0  0  0  0  0  0  0  0  0  0  0  0
    6.0954   43.6351   50.5797 C   0  0  0  0  0  0  0  0  0  0  0  0
    2.5449   45.1940   53.2585 C   0  0  0  0  0  0  0  0  0  0  0  0
    2.5810   43.8547   53.3590 N   0  0  0  0  0  0  0  0  0  0  0  0
    1.6021   43.5697   54.3079 O   0  0  0  0  0  0  0  0  0  0  0  0
    1.0576   44.7630   54.6905 C   0  0  0  0  0  0  0  0  0  0  0  0
   -0.0021   44.7246   55.6804 C   0  0  0  0  0  0  0  0  0  0  0  0
   -0.7084   45.8854   56.0133 C   0  0  0  0  0  0  0  0  0  0  0  0
   -1.7265   45.8372   56.9650 C   0  0  0  0  0  0  0  0  0  0  0  0
   -2.0119   44.6211   57.5598 C   0  0  0  0  0  0  0  0  0  0  0  0
   -1.3563   43.4766   57.2695 N   0  0  0  0  0  0  0  0  0  0  0  0
   -0.3707   43.5543   56.3401 C   0  0  0  0  0  0  0  0  0  0  0  0
    1.5956   45.7934   54.0749 N   0  0  0  0  0  0  0  0  0  0  0  0
    4.8779   44.6215   52.8028 H   0  0  0  0  0  0  0  0  0  0  0  0
    5.3830   46.8808   50.8709 H   0  0  0  0  0  0  0  0  0  0  0  0
    7.4484   46.1135   52.8291 H   0  0  0  0  0  0  0  0  0  0  0  0
    6.9748   47.7138   52.0231 H   0  0  0  0  0  0  0  0  0  0  0  0
    6.5355   48.1130   54.2328 H   0  0  0  0  0  0  0  0  0  0  0  0
    4.9368   47.6072   53.5521 H   0  0  0  0  0  0  0  0  0  0  0  0
    4.9403   46.2076   55.0712 H   0  0  0  0  0  0  0  0  0  0  0  0
    6.0640   45.4629   49.5135 H   0  0  0  0  0  0  0  0  0  0  0  0
    8.2072   46.4031   50.3781 H   0  0  0  0  0  0  0  0  0  0  0  0
    8.4029   44.9026   51.3815 H   0  0  0  0  0  0  0  0  0  0  0  0
    8.6447   45.2868   48.4083 H   0  0  0  0  0  0  0  0  0  0  0  0
    9.6573   44.3241   49.5883 H   0  0  0  0  0  0  0  0  0  0  0  0
    7.2107   43.5430   48.0639 H   0  0  0  0  0  0  0  0  0  0  0  0
    8.6862   42.5958   48.5281 H   0  0  0  0  0  0  0  0  0  0  0  0
    6.7004   41.7632   49.6982 H   0  0  0  0  0  0  0  0  0  0  0  0
    7.8985   42.5022   50.8420 H   0  0  0  0  0  0  0  0  0  0  0  0
    5.1705   43.4688   50.0080 H   0  0  0  0  0  0  0  0  0  0  0  0
    5.9753   43.4027   51.6481 H   0  0  0  0  0  0  0  0  0  0  0  0
   -0.4601   46.8383   55.5231 H   0  0  0  0  0  0  0  0  0  0  0  0
   -2.2885   46.7431   57.2360 H   0  0  0  0  0  0  0  0  0  0  0  0
   -2.8160   44.5844   58.3096 H   0  0  0  0  0  0  0  0  0  0  0  0
    0.1735   42.6314   56.0909 H   0  0  0  0  0  0  0  0  0  0  0  0
  1  2  2  0
  2  3  1  0
  3  4  1  0
  4  5  1  0
  5  6  1  0
  6  7  1  0
  4  8  1  0
  8  9  1  0
  9 10  1  0
 10 11  1  0
 11 12  1  0
 12 13  1  0
  2 14  1  0
 14 15  2  0
 15 16  1  0
 16 17  1  0
 17 18  1  0
 18 19  2  0
 19 20  1  0
 20 21  2  0
 21 22  1  0
 22 23  2  0
 17 24  2  0
 13  8  1  0
 24 14  1  0
 23 18  1  0
  3 25  1  0
  4 26  1  0
  5 27  1  0
  5 28  1  0
  6 29  1  0
  6 30  1  0
  7 31  1  0
  8 32  1  0
  9 33  1  0
  9 34  1  0
 10 35  1  0
 10 36  1  0
 11 37  1  0
 11 38  1  0
 12 39  1  0
 12 40  1  0
 13 41  1  0
 13 42  1  0
 19 43  1  0
 20 44  1  0
 21 45  1  0
 23 46  1  0
M  END
>  <meeko>  (152) 
{"is_sidechain": false}

>  <CID>  (152) 
Z1381816014

>  <pose_index>  (152) 
5

>  <docking_score>  (152) 
-7.454

>  <rmsd_to_best_selected>  (152) 
1.5756516558236087

>  <MWT>  (152) 
330.3879999999996

>  <TPSA>  (152) 
101.14

>  <logP>  (152) 
2.1926999999999994

>  <HBD>  (152) 
2

>  <HBA>  (152) 
6

>  <SMILES>  (152) 
[H]OC([H])([H])C([H])([H])C([H])(N([H])C(=O)c1noc(-c2c([H])nc([H])c([H])c2[H])n1)C1([H])C([H])([H])C([H])([H])C([H])([H])C([H])([H])C1([H])[H]

$$$$
Z1381816014_pose7
     RDKit          3D

 46 48  0  0  0  0  0  0  0  0999 V2000
    2.7851   46.5522   51.2225 O   0  0  0  0  0  0  0  0  0  0  0  0
    3.2222   45.7697   52.0609 C   0  0  0  0  0  0  0  0  0  0  0  0
    4.5587   45.4172   52.1419 N   0  0  0  0  0  0  0  0  0  0  0  0
    5.6033   46.0988   51.3888 C   0  0  0  0  0  0  0  0  0  0  0  0
    6.4201   47.0439   52.2978 C   0  0  0  0  0  0  0  0  0  0  0  0
    6.5149   46.6687   53.7719 C   0  0  0  0  0  0  0  0  0  0  0  0
    5.4601   47.2563   54.5228 O   0  0  0  0  0  0  0  0  0  0  0  0
    6.3925   45.1011   50.4964 C   0  0  0  0  0  0  0  0  0  0  0  0
    7.9017   45.3822   50.4775 C   0  0  0  0  0  0  0  0  0  0  0  0
    8.6243   44.5694   49.3987 C   0  0  0  0  0  0  0  0  0  0  0  0
    7.9943   43.2021   49.1336 C   0  0  0  0  0  0  0  0  0  0  0  0
    7.2483   42.6763   50.3501 C   0  0  0  0  0  0  0  0  0  0  0  0
    6.1038   43.6061   50.7608 C   0  0  0  0  0  0  0  0  0  0  0  0
    2.3958   45.1321   53.0974 C   0  0  0  0  0  0  0  0  0  0  0  0
    2.4242   43.8154   53.3631 N   0  0  0  0  0  0  0  0  0  0  0  0
    1.4918   43.6658   54.3868 O   0  0  0  0  0  0  0  0  0  0  0  0
    0.9782   44.9058   54.6430 C   0  0  0  0  0  0  0  0  0  0  0  0
   -0.0314   45.0082   55.6795 C   0  0  0  0  0  0  0  0  0  0  0  0
   -0.7598   43.8818   56.0794 C   0  0  0  0  0  0  0  0  0  0  0  0
   -1.7260   43.9912   57.0773 C   0  0  0  0  0  0  0  0  0  0  0  0
   -1.9394   45.2321   57.6516 C   0  0  0  0  0  0  0  0  0  0  0  0
   -1.2623   46.3437   57.2964 N   0  0  0  0  0  0  0  0  0  0  0  0
   -0.3275   46.2075   56.3229 C   0  0  0  0  0  0  0  0  0  0  0  0
    1.4940   45.8430   53.8774 N   0  0  0  0  0  0  0  0  0  0  0  0
    4.8318   44.9454   53.0036 H   0  0  0  0  0  0  0  0  0  0  0  0
    5.1610   46.7879   50.6543 H   0  0  0  0  0  0  0  0  0  0  0  0
    7.4443   47.0862   51.8988 H   0  0  0  0  0  0  0  0  0  0  0  0
    5.8776   48.0007   52.2790 H   0  0  0  0  0  0  0  0  0  0  0  0
    6.4567   45.5745   53.8678 H   0  0  0  0  0  0  0  0  0  0  0  0
    7.4716   47.0431   54.1649 H   0  0  0  0  0  0  0  0  0  0  0  0
    5.0382   47.9203   53.9495 H   0  0  0  0  0  0  0  0  0  0  0  0
    5.9964   45.2967   49.4890 H   0  0  0  0  0  0  0  0  0  0  0  0
    8.0610   46.4528   50.2816 H   0  0  0  0  0  0  0  0  0  0  0  0
    8.3135   45.0904   51.4549 H   0  0  0  0  0  0  0  0  0  0  0  0
    8.6100   45.1458   48.4619 H   0  0  0  0  0  0  0  0  0  0  0  0
    9.6457   44.3871   49.7641 H   0  0  0  0  0  0  0  0  0  0  0  0
    7.2882   43.2924   48.2949 H   0  0  0  0  0  0  0  0  0  0  0  0
    8.8024   42.4943   48.8968 H   0  0  0  0  0  0  0  0  0  0  0  0
    6.8342   41.6852   50.1130 H   0  0  0  0  0  0  0  0  0  0  0  0
    7.9587   42.6180   51.1879 H   0  0  0  0  0  0  0  0  0  0  0  0
    5.2046   43.3207   50.1951 H   0  0  0  0  0  0  0  0  0  0  0  0
    5.9705   43.4916   51.8467 H   0  0  0  0  0  0  0  0  0  0  0  0
   -0.5691   42.9080   55.6046 H   0  0  0  0  0  0  0  0  0  0  0  0
   -2.3045   43.1132   57.4005 H   0  0  0  0  0  0  0  0  0  0  0  0
   -2.7020   45.3166   58.4398 H   0  0  0  0  0  0  0  0  0  0  0  0
    0.2341   47.1040   56.0215 H   0  0  0  0  0  0  0  0  0  0  0  0
  1  2  2  0
  2  3  1  0
  3  4  1  0
  4  5  1  0
  5  6  1  0
  6  7  1  0
  4  8  1  0
  8  9  1  0
  9 10  1  0
 10 11  1  0
 11 12  1  0
 12 13  1  0
  2 14  1  0
 14 15  2  0
 15 16  1  0
 16 17  1  0
 17 18  1  0
 18 19  2  0
 19 20  1  0
 20 21  2  0
 21 22  1  0
 22 23  2  0
 17 24  2  0
 13  8  1  0
 24 14  1  0
 23 18  1  0
  3 25  1  0
  4 26  1  0
  5 27  1  0
  5 28  1  0
  6 29  1  0
  6 30  1  0
  7 31  1  0
  8 32  1  0
  9 33  1  0
  9 34  1  0
 10 35  1  0
 10 36  1  0
 11 37  1  0
 11 38  1  0
 12 39  1  0
 12 40  1  0
 13 41  1  0
 13 42  1  0
 19 43  1  0
 20 44  1  0
 21 45  1  0
 23 46  1  0
M  END
>  <meeko>  (153) 
{"is_sidechain": false}

>  <CID>  (153) 
Z1381816014

>  <pose_index>  (153) 
7

>  <docking_score>  (153) 
-7.375

>  <rmsd_to_best_selected>  (153) 
1.1237488539453158

>  <MWT>  (153) 
330.3879999999996

>  <TPSA>  (153) 
101.14

>  <logP>  (153) 
2.1926999999999994

>  <HBD>  (153) 
2

>  <HBA>  (153) 
6

>  <SMILES>  (153) 
[H]OC([H])([H])C([H])([H])C([H])(N([H])C(=O)c1noc(-c2c([H])nc([H])c([H])c2[H])n1)C1([H])C([H])([H])C([H])([H])C([H])([H])C([H])([H])C1([H])[H]

$$$$
Z1381816014_pose8
     RDKit          3D

 46 48  0  0  0  0  0  0  0  0999 V2000
    3.0314   46.1200   50.6300 O   0  0  0  0  0  0  0  0  0  0  0  0
    3.2156   45.5596   51.7072 C   0  0  0  0  0  0  0  0  0  0  0  0
    4.4748   45.3541   52.2464 N   0  0  0  0  0  0  0  0  0  0  0  0
    5.6779   45.9661   51.6988 C   0  0  0  0  0  0  0  0  0  0  0  0
    6.5254   46.6228   52.8129 C   0  0  0  0  0  0  0  0  0  0  0  0
    5.7924   47.5439   53.7809 C   0  0  0  0  0  0  0  0  0  0  0  0
    4.8475   48.3610   53.1012 O   0  0  0  0  0  0  0  0  0  0  0  0
    6.4031   45.0003   50.7215 C   0  0  0  0  0  0  0  0  0  0  0  0
    7.8997   45.3104   50.5751 C   0  0  0  0  0  0  0  0  0  0  0  0
    8.5378   44.5323   49.4209 C   0  0  0  0  0  0  0  0  0  0  0  0
    7.9105   43.1583   49.1843 C   0  0  0  0  0  0  0  0  0  0  0  0
    7.2848   42.5965   50.4512 C   0  0  0  0  0  0  0  0  0  0  0  0
    6.1643   43.4956   50.9793 C   0  0  0  0  0  0  0  0  0  0  0  0
    2.1326   45.0667   52.5721 C   0  0  0  0  0  0  0  0  0  0  0  0
    1.2130   44.1737   52.1724 N   0  0  0  0  0  0  0  0  0  0  0  0
    0.3989   44.0145   53.2908 O   0  0  0  0  0  0  0  0  0  0  0  0
    0.8964   44.8332   54.2648 C   0  0  0  0  0  0  0  0  0  0  0  0
    0.2040   44.8489   55.5403 C   0  0  0  0  0  0  0  0  0  0  0  0
   -0.9549   44.0896   55.7316 C   0  0  0  0  0  0  0  0  0  0  0  0
   -1.6114   44.1107   56.9608 C   0  0  0  0  0  0  0  0  0  0  0  0
   -1.0853   44.8970   57.9718 C   0  0  0  0  0  0  0  0  0  0  0  0
    0.0289   45.6453   57.8319 N   0  0  0  0  0  0  0  0  0  0  0  0
    0.6461   45.6043   56.6240 C   0  0  0  0  0  0  0  0  0  0  0  0
    1.9579   45.5067   53.8776 N   0  0  0  0  0  0  0  0  0  0  0  0
    4.4869   45.0886   53.2300 H   0  0  0  0  0  0  0  0  0  0  0  0
    5.4172   46.8180   51.0535 H   0  0  0  0  0  0  0  0  0  0  0  0
    6.9823   45.8150   53.4034 H   0  0  0  0  0  0  0  0  0  0  0  0
    7.2418   47.2703   52.2859 H   0  0  0  0  0  0  0  0  0  0  0  0
    5.2653   46.9322   54.5280 H   0  0  0  0  0  0  0  0  0  0  0  0
    6.5321   48.1980   54.2655 H   0  0  0  0  0  0  0  0  0  0  0  0
    5.1074   49.2863   53.2573 H   0  0  0  0  0  0  0  0  0  0  0  0
    5.9164   45.2070   49.7570 H   0  0  0  0  0  0  0  0  0  0  0  0
    8.0223   46.3873   50.3877 H   0  0  0  0  0  0  0  0  0  0  0  0
    8.4015   45.0082   51.5062 H   0  0  0  0  0  0  0  0  0  0  0  0
    8.4308   45.1259   48.5010 H   0  0  0  0  0  0  0  0  0  0  0  0
    9.5905   44.3626   49.6912 H   0  0  0  0  0  0  0  0  0  0  0  0
    7.1313   43.2509   48.4133 H   0  0  0  0  0  0  0  0  0  0  0  0
    8.7062   42.4705   48.8623 H   0  0  0  0  0  0  0  0  0  0  0  0
    6.8696   41.6017   50.2322 H   0  0  0  0  0  0  0  0  0  0  0  0
    8.0675   42.5377   51.2218 H   0  0  0  0  0  0  0  0  0  0  0  0
    5.2242   43.2038   50.4883 H   0  0  0  0  0  0  0  0  0  0  0  0
    6.1279   43.3576   52.0700 H   0  0  0  0  0  0  0  0  0  0  0  0
   -1.3493   43.4741   54.9096 H   0  0  0  0  0  0  0  0  0  0  0  0
   -2.5237   43.5181   57.1236 H   0  0  0  0  0  0  0  0  0  0  0  0
   -1.6038   44.9126   58.9418 H   0  0  0  0  0  0  0  0  0  0  0  0
    1.5561   46.2080   56.4918 H   0  0  0  0  0  0  0  0  0  0  0  0
  1  2  2  0
  2  3  1  0
  3  4  1  0
  4  5  1  0
  5  6  1  0
  6  7  1  0
  4  8  1  0
  8  9  1  0
  9 10  1  0
 10 11  1  0
 11 12  1  0
 12 13  1  0
  2 14  1  0
 14 15  2  0
 15 16  1  0
 16 17  1  0
 17 18  1  0
 18 19  2  0
 19 20  1  0
 20 21  2  0
 21 22  1  0
 22 23  2  0
 17 24  2  0
 13  8  1  0
 24 14  1  0
 23 18  1  0
  3 25  1  0
  4 26  1  0
  5 27  1  0
  5 28  1  0
  6 29  1  0
  6 30  1  0
  7 31  1  0
  8 32  1  0
  9 33  1  0
  9 34  1  0
 10 35  1  0
 10 36  1  0
 11 37  1  0
 11 38  1  0
 12 39  1  0
 12 40  1  0
 13 41  1  0
 13 42  1  0
 19 43  1  0
 20 44  1  0
 21 45  1  0
 23 46  1  0
M  END
>  <meeko>  (154) 
{"is_sidechain": false}

>  <CID>  (154) 
Z1381816014

>  <pose_index>  (154) 
8

>  <docking_score>  (154) 
-7.356

>  <rmsd_to_best_selected>  (154) 
1.3636193007600734

>  <MWT>  (154) 
330.3879999999996

>  <TPSA>  (154) 
101.14

>  <logP>  (154) 
2.1926999999999994

>  <HBD>  (154) 
2

>  <HBA>  (154) 
6

>  <SMILES>  (154) 
[H]OC([H])([H])C([H])([H])C([H])(N([H])C(=O)c1noc(-c2c([H])nc([H])c([H])c2[H])n1)C1([H])C([H])([H])C([H])([H])C([H])([H])C([H])([H])C1([H])[H]

$$$$
Z1381816014_pose10
     RDKit          3D

 46 48  0  0  0  0  0  0  0  0999 V2000
    2.9909   45.3735   51.4435 O   0  0  0  0  0  0  0  0  0  0  0  0
    3.4347   45.1027   52.5553 C   0  0  0  0  0  0  0  0  0  0  0  0
    4.7755   45.2184   52.8823 N   0  0  0  0  0  0  0  0  0  0  0  0
    5.7474   45.8714   52.0152 C   0  0  0  0  0  0  0  0  0  0  0  0
    6.3994   47.0812   52.7200 C   0  0  0  0  0  0  0  0  0  0  0  0
    6.1073   48.4575   52.1337 C   0  0  0  0  0  0  0  0  0  0  0  0
    7.3037   49.1085   51.7242 O   0  0  0  0  0  0  0  0  0  0  0  0
    6.6933   44.8315   51.3513 C   0  0  0  0  0  0  0  0  0  0  0  0
    5.9845   43.9634   50.3021 C   0  0  0  0  0  0  0  0  0  0  0  0
    6.8489   42.7818   49.8542 C   0  0  0  0  0  0  0  0  0  0  0  0
    8.3490   43.0787   49.8632 C   0  0  0  0  0  0  0  0  0  0  0  0
    8.6334   44.5609   49.6804 C   0  0  0  0  0  0  0  0  0  0  0  0
    8.0217   45.4009   50.8045 C   0  0  0  0  0  0  0  0  0  0  0  0
    2.6050   44.6534   53.6831 C   0  0  0  0  0  0  0  0  0  0  0  0
    2.9874   43.7062   54.5555 N   0  0  0  0  0  0  0  0  0  0  0  0
    1.9055   43.6015   55.4248 O   0  0  0  0  0  0  0  0  0  0  0  0
    0.9608   44.4906   54.9951 C   0  0  0  0  0  0  0  0  0  0  0  0
   -0.2780   44.5621   55.7467 C   0  0  0  0  0  0  0  0  0  0  0  0
   -0.5616   43.6235   56.7448 C   0  0  0  0  0  0  0  0  0  0  0  0
   -1.7548   43.7025   57.4610 C   0  0  0  0  0  0  0  0  0  0  0  0
   -2.6360   44.7249   57.1573 C   0  0  0  0  0  0  0  0  0  0  0  0
   -2.4044   45.6505   56.2028 N   0  0  0  0  0  0  0  0  0  0  0  0
   -1.2354   45.5487   55.5218 C   0  0  0  0  0  0  0  0  0  0  0  0
    1.3353   45.1602   53.9271 N   0  0  0  0  0  0  0  0  0  0  0  0
    4.9835   45.1826   53.8793 H   0  0  0  0  0  0  0  0  0  0  0  0
    5.2449   46.3327   51.1522 H   0  0  0  0  0  0  0  0  0  0  0  0
    6.0537   47.0841   53.7642 H   0  0  0  0  0  0  0  0  0  0  0  0
    7.4828   46.9385   52.5934 H   0  0  0  0  0  0  0  0  0  0  0  0
    5.4453   48.3430   51.2627 H   0  0  0  0  0  0  0  0  0  0  0  0
    5.6261   49.0708   52.9098 H   0  0  0  0  0  0  0  0  0  0  0  0
    7.5052   48.7946   50.8247 H   0  0  0  0  0  0  0  0  0  0  0  0
    6.9830   44.1823   52.1907 H   0  0  0  0  0  0  0  0  0  0  0  0
    5.0504   43.5757   50.7348 H   0  0  0  0  0  0  0  0  0  0  0  0
    5.7855   44.5911   49.4211 H   0  0  0  0  0  0  0  0  0  0  0  0
    6.6584   41.9359   50.5311 H   0  0  0  0  0  0  0  0  0  0  0  0
    6.5721   42.5575   48.8135 H   0  0  0  0  0  0  0  0  0  0  0  0
    8.7707   42.7514   50.8250 H   0  0  0  0  0  0  0  0  0  0  0  0
    8.8093   42.5367   49.0240 H   0  0  0  0  0  0  0  0  0  0  0  0
    9.7224   44.7160   49.6724 H   0  0  0  0  0  0  0  0  0  0  0  0
    8.1811   44.8808   48.7301 H   0  0  0  0  0  0  0  0  0  0  0  0
    8.7444   45.4530   51.6322 H   0  0  0  0  0  0  0  0  0  0  0  0
    7.7975   46.3911   50.3811 H   0  0  0  0  0  0  0  0  0  0  0  0
    0.1586   42.8217   56.9648 H   0  0  0  0  0  0  0  0  0  0  0  0
   -1.9898   42.9704   58.2477 H   0  0  0  0  0  0  0  0  0  0  0  0
   -3.5765   44.7867   57.7245 H   0  0  0  0  0  0  0  0  0  0  0  0
   -1.0299   46.2948   54.7401 H   0  0  0  0  0  0  0  0  0  0  0  0
  1  2  2  0
  2  3  1  0
  3  4  1  0
  4  5  1  0
  5  6  1  0
  6  7  1  0
  4  8  1  0
  8  9  1  0
  9 10  1  0
 10 11  1  0
 11 12  1  0
 12 13  1  0
  2 14  1  0
 14 15  2  0
 15 16  1  0
 16 17  1  0
 17 18  1  0
 18 19  2  0
 19 20  1  0
 20 21  2  0
 21 22  1  0
 22 23  2  0
 17 24  2  0
 13  8  1  0
 24 14  1  0
 23 18  1  0
  3 25  1  0
  4 26  1  0
  5 27  1  0
  5 28  1  0
  6 29  1  0
  6 30  1  0
  7 31  1  0
  8 32  1  0
  9 33  1  0
  9 34  1  0
 10 35  1  0
 10 36  1  0
 11 37  1  0
 11 38  1  0
 12 39  1  0
 12 40  1  0
 13 41  1  0
 13 42  1  0
 19 43  1  0
 20 44  1  0
 21 45  1  0
 23 46  1  0
M  END
>  <meeko>  (155) 
{"is_sidechain": false}

>  <CID>  (155) 
Z1381816014

>  <pose_index>  (155) 
10

>  <docking_score>  (155) 
-7.139

>  <rmsd_to_best_selected>  (155) 
1.7921519903968741

>  <MWT>  (155) 
330.3879999999996

>  <TPSA>  (155) 
101.14

>  <logP>  (155) 
2.1926999999999994

>  <HBD>  (155) 
2

>  <HBA>  (155) 
6

>  <SMILES>  (155) 
[H]OC([H])([H])C([H])([H])C([H])(N([H])C(=O)c1noc(-c2c([H])nc([H])c([H])c2[H])n1)C1([H])C([H])([H])C([H])([H])C([H])([H])C([H])([H])C1([H])[H]

$$$$
Z1463055422_pose2
     RDKit          3D

 45 47  0  0  0  0  0  0  0  0999 V2000
    3.1231   43.3705   52.1700 N   0  0  0  0  0  0  0  0  0  0  0  0
    3.4053   43.6880   53.4671 C   0  0  0  0  0  0  0  0  0  0  0  0
    3.3627   42.7984   54.3171 O   0  0  0  0  0  0  0  0  0  0  0  0
    3.6647   45.1967   53.8017 C   0  0  0  0  0  0  0  0  0  0  0  0
    5.1411   45.3641   53.7845 N   0  0  0  0  0  0  0  0  0  0  0  0
    5.7873   46.5423   53.4720 C   0  0  0  0  0  0  0  0  0  0  0  0
    5.2432   47.6418   53.4791 O   0  0  0  0  0  0  0  0  0  0  0  0
    7.2276   46.4408   53.0770 C   0  0  0  0  0  0  0  0  0  0  0  0
    8.0660   47.5097   53.4369 C   0  0  0  0  0  0  0  0  0  0  0  0
    9.4198   47.5073   53.0883 C   0  0  0  0  0  0  0  0  0  0  0  0
    9.9509   46.4406   52.3674 C   0  0  0  0  0  0  0  0  0  0  0  0
    9.1338   45.3693   52.0097 C   0  0  0  0  0  0  0  0  0  0  0  0
    7.7848   45.3552   52.3840 C   0  0  0  0  0  0  0  0  0  0  0  0
    7.0114   44.2822   52.0142 O   0  0  0  0  0  0  0  0  0  0  0  0
    6.5905   44.4122   50.6488 C   0  0  0  0  0  0  0  0  0  0  0  0
    7.2750   43.3439   49.8506 C   0  0  0  0  0  0  0  0  0  0  0  0
    8.3378   43.6989   48.8434 C   0  0  0  0  0  0  0  0  0  0  0  0
    7.0003   43.1915   48.3776 C   0  0  0  0  0  0  0  0  0  0  0  0
    3.1998   45.4562   55.2549 C   0  0  0  0  0  0  0  0  0  0  0  0
    1.8127   46.0706   55.3571 C   0  0  0  0  0  0  0  0  0  0  0  0
    1.0160   45.6656   54.2529 O   0  0  0  0  0  0  0  0  0  0  0  0
    1.4539   46.3045   53.0537 C   0  0  0  0  0  0  0  0  0  0  0  0
    2.9522   46.1392   52.8152 C   0  0  0  0  0  0  0  0  0  0  0  0
    2.8133   44.0874   51.5196 H   0  0  0  0  0  0  0  0  0  0  0  0
    2.8323   42.4184   51.9920 H   0  0  0  0  0  0  0  0  0  0  0  0
    5.6603   44.5355   53.5013 H   0  0  0  0  0  0  0  0  0  0  0  0
    7.6518   48.3590   54.0000 H   0  0  0  0  0  0  0  0  0  0  0  0
   10.0653   48.3477   53.3832 H   0  0  0  0  0  0  0  0  0  0  0  0
   11.0129   46.4434   52.0808 H   0  0  0  0  0  0  0  0  0  0  0  0
    9.5505   44.5317   51.4311 H   0  0  0  0  0  0  0  0  0  0  0  0
    5.4996   44.2882   50.5808 H   0  0  0  0  0  0  0  0  0  0  0  0
    6.8530   45.4074   50.2606 H   0  0  0  0  0  0  0  0  0  0  0  0
    7.2228   42.6788   50.7252 H   0  0  0  0  0  0  0  0  0  0  0  0
    8.6132   44.7516   48.6824 H   0  0  0  0  0  0  0  0  0  0  0  0
    9.3835   43.4000   48.6782 H   0  0  0  0  0  0  0  0  0  0  0  0
    6.2980   43.8734   47.8758 H   0  0  0  0  0  0  0  0  0  0  0  0
    6.6635   42.3682   47.7306 H   0  0  0  0  0  0  0  0  0  0  0  0
    3.1944   44.4970   55.7934 H   0  0  0  0  0  0  0  0  0  0  0  0
    3.9032   46.1809   55.6907 H   0  0  0  0  0  0  0  0  0  0  0  0
    1.3357   45.7384   56.2910 H   0  0  0  0  0  0  0  0  0  0  0  0
    1.9036   47.1668   55.3522 H   0  0  0  0  0  0  0  0  0  0  0  0
    0.9111   45.8670   52.2028 H   0  0  0  0  0  0  0  0  0  0  0  0
    1.2489   47.3805   53.1550 H   0  0  0  0  0  0  0  0  0  0  0  0
    3.0948   45.7421   51.7993 H   0  0  0  0  0  0  0  0  0  0  0  0
    3.3995   47.1336   52.9603 H   0  0  0  0  0  0  0  0  0  0  0  0
  1  2  1  0
  2  3  2  0
  2  4  1  0
  4  5  1  0
  5  6  1  0
  6  7  2  0
  6  8  1  0
  8  9  2  0
  9 10  1  0
 10 11  2  0
 11 12  1  0
 12 13  2  0
 13 14  1  0
 14 15  1  0
 15 16  1  0
 16 17  1  0
 17 18  1  0
  4 19  1  0
 19 20  1  0
 20 21  1  0
 21 22  1  0
 22 23  1  0
 23  4  1  0
 13  8  1  0
 18 16  1  0
  1 24  1  0
  1 25  1  0
  5 26  1  0
  9 27  1  0
 10 28  1  0
 11 29  1  0
 12 30  1  0
 15 31  1  0
 15 32  1  0
 16 33  1  0
 17 34  1  0
 17 35  1  0
 18 36  1  0
 18 37  1  0
 19 38  1  0
 19 39  1  0
 20 40  1  0
 20 41  1  0
 22 42  1  0
 22 43  1  0
 23 44  1  0
 23 45  1  0
M  END
>  <meeko>  (156) 
{"is_sidechain": false}

>  <CID>  (156) 
Z1463055422

>  <pose_index>  (156) 
2

>  <docking_score>  (156) 
-8.417

>  <rmsd_to_best_selected>  (156) 
0.0

>  <MWT>  (156) 
318.37299999999965

>  <TPSA>  (156) 
90.65

>  <logP>  (156) 
1.2396999999999994

>  <HBD>  (156) 
2

>  <HBA>  (156) 
4

>  <SMILES>  (156) 
[H]c1c([H])c([H])c(C(=O)N([H])C2(C(=O)N([H])[H])C([H])([H])C([H])([H])OC([H])([H])C2([H])[H])c(OC([H])([H])C2([H])C([H])([H])C2([H])[H])c1[H]

$$$$
Z1463055422_pose4
     RDKit          3D

 45 47  0  0  0  0  0  0  0  0999 V2000
    2.6155   44.6227   51.8382 N   0  0  0  0  0  0  0  0  0  0  0  0
    3.1965   44.3252   53.0374 C   0  0  0  0  0  0  0  0  0  0  0  0
    3.4125   43.1440   53.3115 O   0  0  0  0  0  0  0  0  0  0  0  0
    3.4540   45.5090   54.0293 C   0  0  0  0  0  0  0  0  0  0  0  0
    4.8995   45.8304   53.9046 N   0  0  0  0  0  0  0  0  0  0  0  0
    5.5258   46.1494   52.7161 C   0  0  0  0  0  0  0  0  0  0  0  0
    4.9310   46.5054   51.7047 O   0  0  0  0  0  0  0  0  0  0  0  0
    7.0169   46.0175   52.6805 C   0  0  0  0  0  0  0  0  0  0  0  0
    7.7603   46.9776   53.3864 C   0  0  0  0  0  0  0  0  0  0  0  0
    9.1576   46.9429   53.3888 C   0  0  0  0  0  0  0  0  0  0  0  0
    9.8292   45.9527   52.6766 C   0  0  0  0  0  0  0  0  0  0  0  0
    9.1058   44.9884   51.9757 C   0  0  0  0  0  0  0  0  0  0  0  0
    7.7058   45.0027   51.9985 C   0  0  0  0  0  0  0  0  0  0  0  0
    7.0277   44.0361   51.2989 O   0  0  0  0  0  0  0  0  0  0  0  0
    6.9437   44.3854   49.9087 C   0  0  0  0  0  0  0  0  0  0  0  0
    7.7954   43.4232   49.1379 C   0  0  0  0  0  0  0  0  0  0  0  0
    9.0314   43.8976   48.4180 C   0  0  0  0  0  0  0  0  0  0  0  0
    7.8245   43.4597   47.6324 C   0  0  0  0  0  0  0  0  0  0  0  0
    3.2322   44.9891   55.4706 C   0  0  0  0  0  0  0  0  0  0  0  0
    1.8619   45.3176   56.0388 C   0  0  0  0  0  0  0  0  0  0  0  0
    0.9043   45.4007   54.9929 O   0  0  0  0  0  0  0  0  0  0  0  0
    1.1099   46.5803   54.2149 C   0  0  0  0  0  0  0  0  0  0  0  0
    2.5511   46.7200   53.7328 C   0  0  0  0  0  0  0  0  0  0  0  0
    2.1164   45.5001   51.7116 H   0  0  0  0  0  0  0  0  0  0  0  0
    2.3378   43.8377   51.2640 H   0  0  0  0  0  0  0  0  0  0  0  0
    5.5035   45.3338   54.5544 H   0  0  0  0  0  0  0  0  0  0  0  0
    7.2360   47.7672   53.9448 H   0  0  0  0  0  0  0  0  0  0  0  0
    9.7261   47.6971   53.9527 H   0  0  0  0  0  0  0  0  0  0  0  0
   10.9289   45.9311   52.6668 H   0  0  0  0  0  0  0  0  0  0  0  0
    9.6368   44.2138   51.4029 H   0  0  0  0  0  0  0  0  0  0  0  0
    5.8999   44.3156   49.5685 H   0  0  0  0  0  0  0  0  0  0  0  0
    7.2935   45.4165   49.7516 H   0  0  0  0  0  0  0  0  0  0  0  0
    7.5826   42.6530   49.8939 H   0  0  0  0  0  0  0  0  0  0  0  0
    9.3116   44.9608   48.4485 H   0  0  0  0  0  0  0  0  0  0  0  0
   10.0949   43.6168   48.4308 H   0  0  0  0  0  0  0  0  0  0  0  0
    7.2230   44.2030   47.0887 H   0  0  0  0  0  0  0  0  0  0  0  0
    7.6411   42.7264   46.8332 H   0  0  0  0  0  0  0  0  0  0  0  0
    3.3527   43.8957   55.4670 H   0  0  0  0  0  0  0  0  0  0  0  0
    3.9723   45.4930   56.1096 H   0  0  0  0  0  0  0  0  0  0  0  0
    1.5622   44.5284   56.7440 H   0  0  0  0  0  0  0  0  0  0  0  0
    1.9113   46.2861   56.5579 H   0  0  0  0  0  0  0  0  0  0  0  0
    0.4467   46.5444   53.3380 H   0  0  0  0  0  0  0  0  0  0  0  0
    0.8870   47.4459   54.8561 H   0  0  0  0  0  0  0  0  0  0  0  0
    2.5337   46.8748   52.6439 H   0  0  0  0  0  0  0  0  0  0  0  0
    2.9807   47.5680   54.2864 H   0  0  0  0  0  0  0  0  0  0  0  0
  1  2  1  0
  2  3  2  0
  2  4  1  0
  4  5  1  0
  5  6  1  0
  6  7  2  0
  6  8  1  0
  8  9  2  0
  9 10  1  0
 10 11  2  0
 11 12  1  0
 12 13  2  0
 13 14  1  0
 14 15  1  0
 15 16  1  0
 16 17  1  0
 17 18  1  0
  4 19  1  0
 19 20  1  0
 20 21  1  0
 21 22  1  0
 22 23  1  0
 23  4  1  0
 13  8  1  0
 18 16  1  0
  1 24  1  0
  1 25  1  0
  5 26  1  0
  9 27  1  0
 10 28  1  0
 11 29  1  0
 12 30  1  0
 15 31  1  0
 15 32  1  0
 16 33  1  0
 17 34  1  0
 17 35  1  0
 18 36  1  0
 18 37  1  0
 19 38  1  0
 19 39  1  0
 20 40  1  0
 20 41  1  0
 22 42  1  0
 22 43  1  0
 23 44  1  0
 23 45  1  0
M  END
>  <meeko>  (157) 
{"is_sidechain": false}

>  <CID>  (157) 
Z1463055422

>  <pose_index>  (157) 
4

>  <docking_score>  (157) 
-8.097

>  <rmsd_to_best_selected>  (157) 
0.9452404092386144

>  <MWT>  (157) 
318.37299999999965

>  <TPSA>  (157) 
90.65

>  <logP>  (157) 
1.2396999999999994

>  <HBD>  (157) 
2

>  <HBA>  (157) 
4

>  <SMILES>  (157) 
[H]c1c([H])c([H])c(C(=O)N([H])C2(C(=O)N([H])[H])C([H])([H])C([H])([H])OC([H])([H])C2([H])[H])c(OC([H])([H])C2([H])C([H])([H])C2([H])[H])c1[H]

$$$$
Z1463055422_pose5
     RDKit          3D

 45 47  0  0  0  0  0  0  0  0999 V2000
    2.0326   43.6685   53.0244 N   0  0  0  0  0  0  0  0  0  0  0  0
    2.4435   44.8812   52.5505 C   0  0  0  0  0  0  0  0  0  0  0  0
    2.2831   45.1337   51.3552 O   0  0  0  0  0  0  0  0  0  0  0  0
    3.1876   45.8324   53.5468 C   0  0  0  0  0  0  0  0  0  0  0  0
    4.5723   45.9608   53.0223 N   0  0  0  0  0  0  0  0  0  0  0  0
    5.4938   44.9330   52.9965 C   0  0  0  0  0  0  0  0  0  0  0  0
    5.1978   43.7477   53.1058 O   0  0  0  0  0  0  0  0  0  0  0  0
    6.9331   45.3181   52.8558 C   0  0  0  0  0  0  0  0  0  0  0  0
    7.3891   46.3861   53.6470 C   0  0  0  0  0  0  0  0  0  0  0  0
    8.7130   46.8267   53.5625 C   0  0  0  0  0  0  0  0  0  0  0  0
    9.5956   46.2109   52.6782 C   0  0  0  0  0  0  0  0  0  0  0  0
    9.1600   45.1451   51.8910 C   0  0  0  0  0  0  0  0  0  0  0  0
    7.8434   44.6830   51.9967 C   0  0  0  0  0  0  0  0  0  0  0  0
    7.4506   43.6303   51.2064 O   0  0  0  0  0  0  0  0  0  0  0  0
    7.1948   44.0755   49.8660 C   0  0  0  0  0  0  0  0  0  0  0  0
    8.1625   43.3821   48.9568 C   0  0  0  0  0  0  0  0  0  0  0  0
    9.3431   44.1231   48.3820 C   0  0  0  0  0  0  0  0  0  0  0  0
    8.2048   43.7106   47.4871 C   0  0  0  0  0  0  0  0  0  0  0  0
    3.2914   45.1146   54.9144 C   0  0  0  0  0  0  0  0  0  0  0  0
    2.2235   45.5356   55.9125 C   0  0  0  0  0  0  0  0  0  0  0  0
    1.0421   45.9304   55.2289 O   0  0  0  0  0  0  0  0  0  0  0  0
    1.2354   47.1814   54.5689 C   0  0  0  0  0  0  0  0  0  0  0  0
    2.4814   47.1928   53.6867 C   0  0  0  0  0  0  0  0  0  0  0  0
    2.4349   43.2858   53.8764 H   0  0  0  0  0  0  0  0  0  0  0  0
    1.6708   43.0159   52.3421 H   0  0  0  0  0  0  0  0  0  0  0  0
    4.9965   46.8749   53.1602 H   0  0  0  0  0  0  0  0  0  0  0  0
    6.6952   46.8818   54.3419 H   0  0  0  0  0  0  0  0  0  0  0  0
    9.0574   47.6591   54.1938 H   0  0  0  0  0  0  0  0  0  0  0  0
   10.6343   46.5645   52.6009 H   0  0  0  0  0  0  0  0  0  0  0  0
    9.8539   44.6661   51.1845 H   0  0  0  0  0  0  0  0  0  0  0  0
    6.1640   43.8212   49.5782 H   0  0  0  0  0  0  0  0  0  0  0  0
    7.3174   45.1663   49.7951 H   0  0  0  0  0  0  0  0  0  0  0  0
    8.0329   42.4619   49.5453 H   0  0  0  0  0  0  0  0  0  0  0  0
    9.4961   45.1854   48.6230 H   0  0  0  0  0  0  0  0  0  0  0  0
   10.4320   43.9673   48.3774 H   0  0  0  0  0  0  0  0  0  0  0  0
    7.5265   44.4717   47.0741 H   0  0  0  0  0  0  0  0  0  0  0  0
    8.1182   43.1286   46.5577 H   0  0  0  0  0  0  0  0  0  0  0  0
    3.1999   44.0316   54.7452 H   0  0  0  0  0  0  0  0  0  0  0  0
    4.2629   45.3930   55.3488 H   0  0  0  0  0  0  0  0  0  0  0  0
    1.9935   44.6898   56.5771 H   0  0  0  0  0  0  0  0  0  0  0  0
    2.5981   46.3851   56.5024 H   0  0  0  0  0  0  0  0  0  0  0  0
    0.3566   47.3877   53.9403 H   0  0  0  0  0  0  0  0  0  0  0  0
    1.3687   47.9503   55.3442 H   0  0  0  0  0  0  0  0  0  0  0  0
    2.1859   47.5295   52.6820 H   0  0  0  0  0  0  0  0  0  0  0  0
    3.2008   47.8654   54.1767 H   0  0  0  0  0  0  0  0  0  0  0  0
  1  2  1  0
  2  3  2  0
  2  4  1  0
  4  5  1  0
  5  6  1  0
  6  7  2  0
  6  8  1  0
  8  9  2  0
  9 10  1  0
 10 11  2  0
 11 12  1  0
 12 13  2  0
 13 14  1  0
 14 15  1  0
 15 16  1  0
 16 17  1  0
 17 18  1  0
  4 19  1  0
 19 20  1  0
 20 21  1  0
 21 22  1  0
 22 23  1  0
 23  4  1  0
 13  8  1  0
 18 16  1  0
  1 24  1  0
  1 25  1  0
  5 26  1  0
  9 27  1  0
 10 28  1  0
 11 29  1  0
 12 30  1  0
 15 31  1  0
 15 32  1  0
 16 33  1  0
 17 34  1  0
 17 35  1  0
 18 36  1  0
 18 37  1  0
 19 38  1  0
 19 39  1  0
 20 40  1  0
 20 41  1  0
 22 42  1  0
 22 43  1  0
 23 44  1  0
 23 45  1  0
M  END
>  <meeko>  (158) 
{"is_sidechain": false}

>  <CID>  (158) 
Z1463055422

>  <pose_index>  (158) 
5

>  <docking_score>  (158) 
-8.062

>  <rmsd_to_best_selected>  (158) 
1.4934793970453843

>  <MWT>  (158) 
318.37299999999965

>  <TPSA>  (158) 
90.65

>  <logP>  (158) 
1.2396999999999994

>  <HBD>  (158) 
2

>  <HBA>  (158) 
4

>  <SMILES>  (158) 
[H]c1c([H])c([H])c(C(=O)N([H])C2(C(=O)N([H])[H])C([H])([H])C([H])([H])OC([H])([H])C2([H])[H])c(OC([H])([H])C2([H])C([H])([H])C2([H])[H])c1[H]

$$$$
Z1463055422_pose7
     RDKit          3D

 45 47  0  0  0  0  0  0  0  0999 V2000
    2.4504   42.9737   53.0866 N   0  0  0  0  0  0  0  0  0  0  0  0
    3.4063   43.7700   52.5257 C   0  0  0  0  0  0  0  0  0  0  0  0
    3.9990   43.3648   51.5248 O   0  0  0  0  0  0  0  0  0  0  0  0
    3.7567   45.1075   53.2619 C   0  0  0  0  0  0  0  0  0  0  0  0
    5.2412   45.1773   53.2846 N   0  0  0  0  0  0  0  0  0  0  0  0
    5.9632   46.2100   53.8466 C   0  0  0  0  0  0  0  0  0  0  0  0
    5.4961   47.0123   54.6488 O   0  0  0  0  0  0  0  0  0  0  0  0
    7.3899   46.3529   53.4143 C   0  0  0  0  0  0  0  0  0  0  0  0
    8.3530   46.4953   54.4269 C   0  0  0  0  0  0  0  0  0  0  0  0
    9.7056   46.6572   54.1113 C   0  0  0  0  0  0  0  0  0  0  0  0
   10.1092   46.6890   52.7788 C   0  0  0  0  0  0  0  0  0  0  0  0
    9.1665   46.5419   51.7624 C   0  0  0  0  0  0  0  0  0  0  0  0
    7.8159   46.3495   52.0769 C   0  0  0  0  0  0  0  0  0  0  0  0
    6.9152   46.2065   51.0498 O   0  0  0  0  0  0  0  0  0  0  0  0
    7.4643   45.3819   50.0108 C   0  0  0  0  0  0  0  0  0  0  0  0
    6.5924   44.1703   49.8747 C   0  0  0  0  0  0  0  0  0  0  0  0
    7.1539   42.8755   49.3468 C   0  0  0  0  0  0  0  0  0  0  0  0
    6.1826   43.6688   48.5143 C   0  0  0  0  0  0  0  0  0  0  0  0
    3.2900   44.9872   54.7320 C   0  0  0  0  0  0  0  0  0  0  0  0
    1.9439   45.6374   55.0061 C   0  0  0  0  0  0  0  0  0  0  0  0
    1.1375   45.6055   53.8367 O   0  0  0  0  0  0  0  0  0  0  0  0
    1.6315   46.5193   52.8580 C   0  0  0  0  0  0  0  0  0  0  0  0
    3.1190   46.3297   52.5761 C   0  0  0  0  0  0  0  0  0  0  0  0
    2.1903   43.0910   54.0631 H   0  0  0  0  0  0  0  0  0  0  0  0
    2.3268   42.0591   52.6755 H   0  0  0  0  0  0  0  0  0  0  0  0
    5.6985   44.7633   52.4754 H   0  0  0  0  0  0  0  0  0  0  0  0
    8.0393   46.4791   55.4811 H   0  0  0  0  0  0  0  0  0  0  0  0
   10.4501   46.7593   54.9146 H   0  0  0  0  0  0  0  0  0  0  0  0
   11.1710   46.8300   52.5285 H   0  0  0  0  0  0  0  0  0  0  0  0
    9.4849   46.5771   50.7101 H   0  0  0  0  0  0  0  0  0  0  0  0
    7.4817   45.9383   49.0621 H   0  0  0  0  0  0  0  0  0  0  0  0
    8.4942   45.0867   50.2601 H   0  0  0  0  0  0  0  0  0  0  0  0
    6.0569   44.4715   50.7871 H   0  0  0  0  0  0  0  0  0  0  0  0
    8.2113   42.8152   49.0498 H   0  0  0  0  0  0  0  0  0  0  0  0
    7.1979   41.8397   49.7144 H   0  0  0  0  0  0  0  0  0  0  0  0
    6.5303   44.1881   47.6091 H   0  0  0  0  0  0  0  0  0  0  0  0
    5.2230   43.4526   48.0219 H   0  0  0  0  0  0  0  0  0  0  0  0
    3.2169   43.9194   54.9859 H   0  0  0  0  0  0  0  0  0  0  0  0
    4.0319   45.5177   55.3469 H   0  0  0  0  0  0  0  0  0  0  0  0
    1.4344   45.0918   55.8140 H   0  0  0  0  0  0  0  0  0  0  0  0
    2.1043   46.6842   55.3035 H   0  0  0  0  0  0  0  0  0  0  0  0
    1.0736   46.3687   51.9220 H   0  0  0  0  0  0  0  0  0  0  0  0
    1.4943   47.5367   53.2529 H   0  0  0  0  0  0  0  0  0  0  0  0
    3.2497   46.2190   51.4895 H   0  0  0  0  0  0  0  0  0  0  0  0
    3.6268   47.2147   52.9871 H   0  0  0  0  0  0  0  0  0  0  0  0
  1  2  1  0
  2  3  2  0
  2  4  1  0
  4  5  1  0
  5  6  1  0
  6  7  2  0
  6  8  1  0
  8  9  2  0
  9 10  1  0
 10 11  2  0
 11 12  1  0
 12 13  2  0
 13 14  1  0
 14 15  1  0
 15 16  1  0
 16 17  1  0
 17 18  1  0
  4 19  1  0
 19 20  1  0
 20 21  1  0
 21 22  1  0
 22 23  1  0
 23  4  1  0
 13  8  1  0
 18 16  1  0
  1 24  1  0
  1 25  1  0
  5 26  1  0
  9 27  1  0
 10 28  1  0
 11 29  1  0
 12 30  1  0
 15 31  1  0
 15 32  1  0
 16 33  1  0
 17 34  1  0
 17 35  1  0
 18 36  1  0
 18 37  1  0
 19 38  1  0
 19 39  1  0
 20 40  1  0
 20 41  1  0
 22 42  1  0
 22 43  1  0
 23 44  1  0
 23 45  1  0
M  END
>  <meeko>  (159) 
{"is_sidechain": false}

>  <CID>  (159) 
Z1463055422

>  <pose_index>  (159) 
7

>  <docking_score>  (159) 
-7.95

>  <rmsd_to_best_selected>  (159) 
1.377440302458118

>  <MWT>  (159) 
318.37299999999965

>  <TPSA>  (159) 
90.65

>  <logP>  (159) 
1.2396999999999994

>  <HBD>  (159) 
2

>  <HBA>  (159) 
4

>  <SMILES>  (159) 
[H]c1c([H])c([H])c(C(=O)N([H])C2(C(=O)N([H])[H])C([H])([H])C([H])([H])OC([H])([H])C2([H])[H])c(OC([H])([H])C2([H])C([H])([H])C2([H])[H])c1[H]

$$$$
Z1463055422_pose8
     RDKit          3D

 45 47  0  0  0  0  0  0  0  0999 V2000
    2.3315   43.1166   52.8732 N   0  0  0  0  0  0  0  0  0  0  0  0
    3.3431   43.9078   52.4125 C   0  0  0  0  0  0  0  0  0  0  0  0
    3.9609   43.5514   51.4082 O   0  0  0  0  0  0  0  0  0  0  0  0
    3.7170   45.1709   53.2600 C   0  0  0  0  0  0  0  0  0  0  0  0
    5.2021   45.2244   53.2689 N   0  0  0  0  0  0  0  0  0  0  0  0
    5.9408   46.2335   53.8519 C   0  0  0  0  0  0  0  0  0  0  0  0
    5.4898   47.0175   54.6817 O   0  0  0  0  0  0  0  0  0  0  0  0
    7.3629   46.3742   53.4085 C   0  0  0  0  0  0  0  0  0  0  0  0
    8.3230   46.6139   54.4063 C   0  0  0  0  0  0  0  0  0  0  0  0
    9.6714   46.7805   54.0773 C   0  0  0  0  0  0  0  0  0  0  0  0
   10.0758   46.7201   52.7459 C   0  0  0  0  0  0  0  0  0  0  0  0
    9.1363   46.4761   51.7455 C   0  0  0  0  0  0  0  0  0  0  0  0
    7.7911   46.2781   52.0748 C   0  0  0  0  0  0  0  0  0  0  0  0
    6.8938   46.0389   51.0628 O   0  0  0  0  0  0  0  0  0  0  0  0
    7.5086   45.2690   50.0184 C   0  0  0  0  0  0  0  0  0  0  0  0
    6.7966   43.9527   49.9346 C   0  0  0  0  0  0  0  0  0  0  0  0
    7.4152   42.7896   49.2033 C   0  0  0  0  0  0  0  0  0  0  0  0
    6.2076   43.4812   48.6299 C   0  0  0  0  0  0  0  0  0  0  0  0
    3.2675   44.9222   54.7205 C   0  0  0  0  0  0  0  0  0  0  0  0
    1.9314   45.5586   55.0693 C   0  0  0  0  0  0  0  0  0  0  0  0
    1.1100   45.6385   53.9137 O   0  0  0  0  0  0  0  0  0  0  0  0
    1.6000   46.6326   53.0142 C   0  0  0  0  0  0  0  0  0  0  0  0
    3.0828   46.4546   52.6961 C   0  0  0  0  0  0  0  0  0  0  0  0
    2.0341   43.1728   53.8436 H   0  0  0  0  0  0  0  0  0  0  0  0
    2.1866   42.2405   52.3885 H   0  0  0  0  0  0  0  0  0  0  0  0
    5.6461   44.8289   52.4434 H   0  0  0  0  0  0  0  0  0  0  0  0
    8.0097   46.6710   55.4592 H   0  0  0  0  0  0  0  0  0  0  0  0
   10.4130   46.9594   54.8699 H   0  0  0  0  0  0  0  0  0  0  0  0
   11.1345   46.8646   52.4843 H   0  0  0  0  0  0  0  0  0  0  0  0
    9.4538   46.4391   50.6929 H   0  0  0  0  0  0  0  0  0  0  0  0
    7.4214   45.8024   49.0604 H   0  0  0  0  0  0  0  0  0  0  0  0
    8.5758   45.1137   50.2351 H   0  0  0  0  0  0  0  0  0  0  0  0
    6.4083   44.1148   50.9509 H   0  0  0  0  0  0  0  0  0  0  0  0
    8.3960   42.9038   48.7186 H   0  0  0  0  0  0  0  0  0  0  0  0
    7.6651   41.7508   49.4649 H   0  0  0  0  0  0  0  0  0  0  0  0
    6.3061   44.1008   47.7263 H   0  0  0  0  0  0  0  0  0  0  0  0
    5.2098   43.1572   48.2991 H   0  0  0  0  0  0  0  0  0  0  0  0
    3.1860   43.8365   54.8779 H   0  0  0  0  0  0  0  0  0  0  0  0
    4.0228   45.3870   55.3712 H   0  0  0  0  0  0  0  0  0  0  0  0
    1.4264   44.9482   55.8325 H   0  0  0  0  0  0  0  0  0  0  0  0
    2.1070   46.5733   55.4559 H   0  0  0  0  0  0  0  0  0  0  0  0
    1.0284   46.5720   52.0763 H   0  0  0  0  0  0  0  0  0  0  0  0
    1.4780   47.6119   53.5002 H   0  0  0  0  0  0  0  0  0  0  0  0
    3.1984   46.4408   51.6023 H   0  0  0  0  0  0  0  0  0  0  0  0
    3.6047   47.2942   53.1786 H   0  0  0  0  0  0  0  0  0  0  0  0
  1  2  1  0
  2  3  2  0
  2  4  1  0
  4  5  1  0
  5  6  1  0
  6  7  2  0
  6  8  1  0
  8  9  2  0
  9 10  1  0
 10 11  2  0
 11 12  1  0
 12 13  2  0
 13 14  1  0
 14 15  1  0
 15 16  1  0
 16 17  1  0
 17 18  1  0
  4 19  1  0
 19 20  1  0
 20 21  1  0
 21 22  1  0
 22 23  1  0
 23  4  1  0
 13  8  1  0
 18 16  1  0
  1 24  1  0
  1 25  1  0
  5 26  1  0
  9 27  1  0
 10 28  1  0
 11 29  1  0
 12 30  1  0
 15 31  1  0
 15 32  1  0
 16 33  1  0
 17 34  1  0
 17 35  1  0
 18 36  1  0
 18 37  1  0
 19 38  1  0
 19 39  1  0
 20 40  1  0
 20 41  1  0
 22 42  1  0
 22 43  1  0
 23 44  1  0
 23 45  1  0
M  END
>  <meeko>  (160) 
{"is_sidechain": false}

>  <CID>  (160) 
Z1463055422

>  <pose_index>  (160) 
8

>  <docking_score>  (160) 
-7.818

>  <rmsd_to_best_selected>  (160) 
1.305178407089264

>  <MWT>  (160) 
318.37299999999965

>  <TPSA>  (160) 
90.65

>  <logP>  (160) 
1.2396999999999994

>  <HBD>  (160) 
2

>  <HBA>  (160) 
4

>  <SMILES>  (160) 
[H]c1c([H])c([H])c(C(=O)N([H])C2(C(=O)N([H])[H])C([H])([H])C([H])([H])OC([H])([H])C2([H])[H])c(OC([H])([H])C2([H])C([H])([H])C2([H])[H])c1[H]

$$$$
Z1463055422_pose9
     RDKit          3D

 45 47  0  0  0  0  0  0  0  0999 V2000
    2.3949   43.3484   55.3855 N   0  0  0  0  0  0  0  0  0  0  0  0
    3.1628   43.6571   54.2995 C   0  0  0  0  0  0  0  0  0  0  0  0
    3.6663   42.7392   53.6522 O   0  0  0  0  0  0  0  0  0  0  0  0
    3.4336   45.1730   54.0137 C   0  0  0  0  0  0  0  0  0  0  0  0
    4.9125   45.3191   53.9859 N   0  0  0  0  0  0  0  0  0  0  0  0
    5.6202   45.8658   52.9347 C   0  0  0  0  0  0  0  0  0  0  0  0
    5.1163   46.5639   52.0612 O   0  0  0  0  0  0  0  0  0  0  0  0
    7.0815   45.5484   52.8659 C   0  0  0  0  0  0  0  0  0  0  0  0
    7.8981   46.0708   53.8842 C   0  0  0  0  0  0  0  0  0  0  0  0
    9.2767   45.8433   53.8854 C   0  0  0  0  0  0  0  0  0  0  0  0
    9.8594   45.0985   52.8627 C   0  0  0  0  0  0  0  0  0  0  0  0
    9.0624   44.5665   51.8493 C   0  0  0  0  0  0  0  0  0  0  0  0
    7.6778   44.7685   51.8631 C   0  0  0  0  0  0  0  0  0  0  0  0
    6.9247   44.2284   50.8490 O   0  0  0  0  0  0  0  0  0  0  0  0
    6.9261   45.0960   49.7048 C   0  0  0  0  0  0  0  0  0  0  0  0
    7.6936   44.4167   48.6118 C   0  0  0  0  0  0  0  0  0  0  0  0
    9.0434   44.9329   48.1864 C   0  0  0  0  0  0  0  0  0  0  0  0
    7.8597   45.0761   47.2677 C   0  0  0  0  0  0  0  0  0  0  0  0
    2.9239   45.9919   55.2237 C   0  0  0  0  0  0  0  0  0  0  0  0
    1.5439   46.5968   55.0204 C   0  0  0  0  0  0  0  0  0  0  0  0
    0.7788   45.7848   54.1413 O   0  0  0  0  0  0  0  0  0  0  0  0
    1.2664   45.8912   52.8043 C   0  0  0  0  0  0  0  0  0  0  0  0
    2.7693   45.6435   52.7065 C   0  0  0  0  0  0  0  0  0  0  0  0
    2.2511   44.0313   56.1250 H   0  0  0  0  0  0  0  0  0  0  0  0
    2.3354   42.3696   55.6315 H   0  0  0  0  0  0  0  0  0  0  0  0
    5.4210   44.5849   54.4722 H   0  0  0  0  0  0  0  0  0  0  0  0
    7.4456   46.6666   54.6906 H   0  0  0  0  0  0  0  0  0  0  0  0
    9.9014   46.2520   54.6933 H   0  0  0  0  0  0  0  0  0  0  0  0
   10.9464   44.9301   52.8543 H   0  0  0  0  0  0  0  0  0  0  0  0
    9.5236   43.9863   51.0366 H   0  0  0  0  0  0  0  0  0  0  0  0
    5.8930   45.2821   49.3759 H   0  0  0  0  0  0  0  0  0  0  0  0
    7.3907   46.0608   49.9564 H   0  0  0  0  0  0  0  0  0  0  0  0
    7.3059   43.4484   48.9612 H   0  0  0  0  0  0  0  0  0  0  0  0
    9.4714   45.8209   48.6745 H   0  0  0  0  0  0  0  0  0  0  0  0
   10.0495   44.4974   48.0963 H   0  0  0  0  0  0  0  0  0  0  0  0
    7.4227   46.0689   47.0845 H   0  0  0  0  0  0  0  0  0  0  0  0
    7.6426   44.7887   46.2284 H   0  0  0  0  0  0  0  0  0  0  0  0
    2.8855   45.3279   56.0999 H   0  0  0  0  0  0  0  0  0  0  0  0
    3.6233   46.8300   55.3595 H   0  0  0  0  0  0  0  0  0  0  0  0
    1.0306   46.6659   55.9909 H   0  0  0  0  0  0  0  0  0  0  0  0
    1.6519   47.5996   54.5814 H   0  0  0  0  0  0  0  0  0  0  0  0
    0.7458   45.1505   52.1794 H   0  0  0  0  0  0  0  0  0  0  0  0
    1.0747   46.9183   52.4603 H   0  0  0  0  0  0  0  0  0  0  0  0
    2.9398   44.8734   51.9398 H   0  0  0  0  0  0  0  0  0  0  0  0
    3.2269   46.6125   52.4585 H   0  0  0  0  0  0  0  0  0  0  0  0
  1  2  1  0
  2  3  2  0
  2  4  1  0
  4  5  1  0
  5  6  1  0
  6  7  2  0
  6  8  1  0
  8  9  2  0
  9 10  1  0
 10 11  2  0
 11 12  1  0
 12 13  2  0
 13 14  1  0
 14 15  1  0
 15 16  1  0
 16 17  1  0
 17 18  1  0
  4 19  1  0
 19 20  1  0
 20 21  1  0
 21 22  1  0
 22 23  1  0
 23  4  1  0
 13  8  1  0
 18 16  1  0
  1 24  1  0
  1 25  1  0
  5 26  1  0
  9 27  1  0
 10 28  1  0
 11 29  1  0
 12 30  1  0
 15 31  1  0
 15 32  1  0
 16 33  1  0
 17 34  1  0
 17 35  1  0
 18 36  1  0
 18 37  1  0
 19 38  1  0
 19 39  1  0
 20 40  1  0
 20 41  1  0
 22 42  1  0
 22 43  1  0
 23 44  1  0
 23 45  1  0
M  END
>  <meeko>  (161) 
{"is_sidechain": false}

>  <CID>  (161) 
Z1463055422

>  <pose_index>  (161) 
9

>  <docking_score>  (161) 
-7.524

>  <rmsd_to_best_selected>  (161) 
1.5807934579600627

>  <MWT>  (161) 
318.37299999999965

>  <TPSA>  (161) 
90.65

>  <logP>  (161) 
1.2396999999999994

>  <HBD>  (161) 
2

>  <HBA>  (161) 
4

>  <SMILES>  (161) 
[H]c1c([H])c([H])c(C(=O)N([H])C2(C(=O)N([H])[H])C([H])([H])C([H])([H])OC([H])([H])C2([H])[H])c(OC([H])([H])C2([H])C([H])([H])C2([H])[H])c1[H]

$$$$
Z1526896036_pose1
     RDKit          3D

 47 49  0  0  0  0  0  0  0  0999 V2000
    0.0560   45.2770   55.6680 C   0  0  0  0  0  0  0  0  0  0  0  0
    0.4210   44.5390   54.4160 C   0  0  0  0  0  0  0  0  0  0  0  0
   -0.5450   44.2310   53.4840 C   0  0  0  0  0  0  0  0  0  0  0  0
   -0.1180   43.5380   52.3720 C   0  0  0  0  0  0  0  0  0  0  0  0
   -1.0890   43.1590   51.2960 C   0  0  0  0  0  0  0  0  0  0  0  0
    1.1680   43.1790   52.1960 N   0  0  0  0  0  0  0  0  0  0  0  0
    2.0510   43.5100   53.1490 C   0  0  0  0  0  0  0  0  0  0  0  0
    3.4010   43.1790   53.0590 N   0  0  0  0  0  0  0  0  0  0  0  0
    4.4540   43.5770   52.2270 C   0  0  0  0  0  0  0  0  0  0  0  0
    4.5940   42.9470   50.9830 C   0  0  0  0  0  0  0  0  0  0  0  0
    5.6270   43.2930   50.1140 C   0  0  0  0  0  0  0  0  0  0  0  0
    6.5410   44.2780   50.4810 C   0  0  0  0  0  0  0  0  0  0  0  0
    6.4500   44.9340   51.7170 C   0  0  0  0  0  0  0  0  0  0  0  0
    7.3970   45.9310   52.0420 N   0  0  0  0  0  0  0  0  0  0  0  0
    6.7590   47.2500   52.2590 C   0  0  0  0  0  0  0  0  0  0  0  0
    7.8010   48.3680   52.3530 C   0  0  0  0  0  0  0  0  0  0  0  0
    9.1550   47.8860   52.8740 C   0  0  0  0  0  0  0  0  0  0  0  0
    9.0680   47.5210   54.3530 C   0  0  0  0  0  0  0  0  0  0  0  0
   10.2190   47.1130   54.9530 N   0  0  0  0  0  0  0  0  0  0  0  0
    8.0110   47.5440   54.9770 O   0  0  0  0  0  0  0  0  0  0  0  0
    9.7150   46.7410   52.0170 C   0  0  0  0  0  0  0  0  0  0  0  0
    8.6310   45.9770   51.2460 C   0  0  0  0  0  0  0  0  0  0  0  0
    5.3920   44.5620   52.5700 C   0  0  0  0  0  0  0  0  0  0  0  0
    1.7130   44.1830   54.2620 N   0  0  0  0  0  0  0  0  0  0  0  0
    0.3508   44.6809   56.5442 H   0  0  0  0  0  0  0  0  0  0  0  0
    0.5797   46.2441   55.6894 H   0  0  0  0  0  0  0  0  0  0  0  0
   -1.0305   45.4478   55.6894 H   0  0  0  0  0  0  0  0  0  0  0  0
   -1.5973   44.5215   53.6195 H   0  0  0  0  0  0  0  0  0  0  0  0
   -2.0206   42.7954   51.7542 H   0  0  0  0  0  0  0  0  0  0  0  0
   -1.3063   44.0383   50.6718 H   0  0  0  0  0  0  0  0  0  0  0  0
   -0.6531   42.3650   50.6718 H   0  0  0  0  0  0  0  0  0  0  0  0
    3.6000   42.4620   53.7410 H   0  0  0  0  0  0  0  0  0  0  0  0
    3.8769   42.1668   50.6878 H   0  0  0  0  0  0  0  0  0  0  0  0
    5.7204   42.7894   49.1405 H   0  0  0  0  0  0  0  0  0  0  0  0
    7.3509   44.5468   49.7869 H   0  0  0  0  0  0  0  0  0  0  0  0
    6.0817   47.4622   51.4186 H   0  0  0  0  0  0  0  0  0  0  0  0
    6.2048   47.2136   53.2085 H   0  0  0  0  0  0  0  0  0  0  0  0
    7.9447   48.7974   51.3505 H   0  0  0  0  0  0  0  0  0  0  0  0
    7.4203   49.1108   53.0695 H   0  0  0  0  0  0  0  0  0  0  0  0
    9.8717   48.7159   52.7866 H   0  0  0  0  0  0  0  0  0  0  0  0
   10.1780   46.7860   55.9080 H   0  0  0  0  0  0  0  0  0  0  0  0
   11.0500   46.9130   54.3960 H   0  0  0  0  0  0  0  0  0  0  0  0
   10.4276   47.1626   51.2928 H   0  0  0  0  0  0  0  0  0  0  0  0
   10.1952   46.0257   52.7009 H   0  0  0  0  0  0  0  0  0  0  0  0
    8.4321   46.4875   50.2922 H   0  0  0  0  0  0  0  0  0  0  0  0
    8.9771   44.9513   51.0507 H   0  0  0  0  0  0  0  0  0  0  0  0
    5.2978   45.0642   53.5441 H   0  0  0  0  0  0  0  0  0  0  0  0
  1  2  1  0
  2  3  2  0
  3  4  1  0
  4  5  1  0
  4  6  2  0
  6  7  1  0
  7  8  1  0
  8  9  1  0
  9 10  2  0
 10 11  1  0
 11 12  2  0
 12 13  1  0
 13 14  1  0
 14 15  1  0
 15 16  1  0
 16 17  1  0
 17 18  1  0
 18 19  1  0
 18 20  2  0
 17 21  1  0
 21 22  1  0
 13 23  2  0
  7 24  2  0
 24  2  1  0
 23  9  1  0
 22 14  1  0
  1 25  1  0
  1 26  1  0
  1 27  1  0
  3 28  1  0
  5 29  1  0
  5 30  1  0
  5 31  1  0
  8 32  1  0
 10 33  1  0
 11 34  1  0
 12 35  1  0
 15 36  1  0
 15 37  1  0
 16 38  1  0
 16 39  1  0
 17 40  1  0
 19 41  1  0
 19 42  1  0
 21 43  1  0
 21 44  1  0
 22 45  1  0
 22 46  1  0
 23 47  1  0
M  END
>  <meeko>  (162) 
{"is_sidechain": false}

>  <CID>  (162) 
Z1526896036

>  <pose_index>  (162) 
1

>  <docking_score>  (162) 
-9.115

>  <rmsd_to_best_selected>  (162) 
0.0

>  <MWT>  (162) 
325.4159999999996

>  <TPSA>  (162) 
84.14

>  <logP>  (162) 
2.5387400000000007

>  <HBD>  (162) 
2

>  <HBA>  (162) 
5

>  <SMILES>  (162) 
[H]c1c(C([H])([H])[H])nc(N([H])c2c([H])c([H])c([H])c(N3C([H])([H])C([H])([H])C([H])(C(=O)N([H])[H])C([H])([H])C3([H])[H])c2[H])nc1C([H])([H])[H]

$$$$
Z1526896036_pose2
     RDKit          3D

 47 49  0  0  0  0  0  0  0  0999 V2000
   -0.8442   43.8878   51.1684 C   0  0  0  0  0  0  0  0  0  0  0  0
    0.0702   43.9168   52.3557 C   0  0  0  0  0  0  0  0  0  0  0  0
   -0.3644   44.4379   53.5541 C   0  0  0  0  0  0  0  0  0  0  0  0
    0.5502   44.4355   54.5846 C   0  0  0  0  0  0  0  0  0  0  0  0
    0.1769   44.9752   55.9319 C   0  0  0  0  0  0  0  0  0  0  0  0
    1.8003   43.9535   54.4391 N   0  0  0  0  0  0  0  0  0  0  0  0
    2.1525   43.4666   53.2405 C   0  0  0  0  0  0  0  0  0  0  0  0
    3.4221   42.9512   52.9915 N   0  0  0  0  0  0  0  0  0  0  0  0
    4.5021   43.3493   52.1961 C   0  0  0  0  0  0  0  0  0  0  0  0
    4.7499   42.6451   51.0105 C   0  0  0  0  0  0  0  0  0  0  0  0
    5.8152   42.9873   50.1800 C   0  0  0  0  0  0  0  0  0  0  0  0
    6.6544   44.0437   50.5278 C   0  0  0  0  0  0  0  0  0  0  0  0
    6.4543   44.7755   51.7067 C   0  0  0  0  0  0  0  0  0  0  0  0
    7.3280   45.8428   52.0137 N   0  0  0  0  0  0  0  0  0  0  0  0
    6.6064   47.1307   52.1312 C   0  0  0  0  0  0  0  0  0  0  0  0
    7.5784   48.3130   52.2053 C   0  0  0  0  0  0  0  0  0  0  0  0
    8.9330   47.9412   52.8073 C   0  0  0  0  0  0  0  0  0  0  0  0
    8.8023   47.6495   54.2997 C   0  0  0  0  0  0  0  0  0  0  0  0
    9.9494   47.3602   54.9712 N   0  0  0  0  0  0  0  0  0  0  0  0
    7.7181   47.6276   54.8745 O   0  0  0  0  0  0  0  0  0  0  0  0
    9.5939   46.7875   52.0380 C   0  0  0  0  0  0  0  0  0  0  0  0
    8.5912   45.9205   51.2676 C   0  0  0  0  0  0  0  0  0  0  0  0
    5.3666   44.4050   52.5213 C   0  0  0  0  0  0  0  0  0  0  0  0
    1.3185   43.4355   52.1871 N   0  0  0  0  0  0  0  0  0  0  0  0
   -1.8890   43.9363   51.5090 H   0  0  0  0  0  0  0  0  0  0  0  0
   -0.6298   44.7496   50.5192 H   0  0  0  0  0  0  0  0  0  0  0  0
   -0.6849   42.9562   50.6056 H   0  0  0  0  0  0  0  0  0  0  0  0
   -1.3830   44.8331   53.6813 H   0  0  0  0  0  0  0  0  0  0  0  0
    0.5761   44.3141   56.7151 H   0  0  0  0  0  0  0  0  0  0  0  0
    0.5992   45.9837   56.0528 H   0  0  0  0  0  0  0  0  0  0  0  0
   -0.9188   45.0240   56.0166 H   0  0  0  0  0  0  0  0  0  0  0  0
    3.5145   42.0783   53.4893 H   0  0  0  0  0  0  0  0  0  0  0  0
    4.0929   41.8085   50.7307 H   0  0  0  0  0  0  0  0  0  0  0  0
    5.9932   42.4246   49.2518 H   0  0  0  0  0  0  0  0  0  0  0  0
    7.4906   44.3088   49.8642 H   0  0  0  0  0  0  0  0  0  0  0  0
    5.9555   47.2573   51.2536 H   0  0  0  0  0  0  0  0  0  0  0  0
    6.0141   47.1117   53.0579 H   0  0  0  0  0  0  0  0  0  0  0  0
    7.7414   48.6960   51.1872 H   0  0  0  0  0  0  0  0  0  0  0  0
    7.1245   49.0688   52.8631 H   0  0  0  0  0  0  0  0  0  0  0  0
    9.6040   48.8067   52.7043 H   0  0  0  0  0  0  0  0  0  0  0  0
    9.8872   47.0829   55.9403 H   0  0  0  0  0  0  0  0  0  0  0  0
   10.8182   47.1930   54.4631 H   0  0  0  0  0  0  0  0  0  0  0  0
   10.3120   47.2119   51.3209 H   0  0  0  0  0  0  0  0  0  0  0  0
   10.0834   46.1391   52.7796 H   0  0  0  0  0  0  0  0  0  0  0  0
    8.4054   46.3668   50.2795 H   0  0  0  0  0  0  0  0  0  0  0  0
    9.0042   44.9085   51.1440 H   0  0  0  0  0  0  0  0  0  0  0  0
    5.1878   44.9663   53.4502 H   0  0  0  0  0  0  0  0  0  0  0  0
  1  2  1  0
  2  3  2  0
  3  4  1  0
  4  5  1  0
  4  6  2  0
  6  7  1  0
  7  8  1  0
  8  9  1  0
  9 10  2  0
 10 11  1  0
 11 12  2  0
 12 13  1  0
 13 14  1  0
 14 15  1  0
 15 16  1  0
 16 17  1  0
 17 18  1  0
 18 19  1  0
 18 20  2  0
 17 21  1  0
 21 22  1  0
 13 23  2  0
  7 24  2  0
 24  2  1  0
 23  9  1  0
 22 14  1  0
  1 25  1  0
  1 26  1  0
  1 27  1  0
  3 28  1  0
  5 29  1  0
  5 30  1  0
  5 31  1  0
  8 32  1  0
 10 33  1  0
 11 34  1  0
 12 35  1  0
 15 36  1  0
 15 37  1  0
 16 38  1  0
 16 39  1  0
 17 40  1  0
 19 41  1  0
 19 42  1  0
 21 43  1  0
 21 44  1  0
 22 45  1  0
 22 46  1  0
 23 47  1  0
M  END
>  <meeko>  (163) 
{"is_sidechain": false}

>  <CID>  (163) 
Z1526896036

>  <pose_index>  (163) 
2

>  <docking_score>  (163) 
-9.099

>  <rmsd_to_best_selected>  (163) 
0.3988409644043529

>  <MWT>  (163) 
325.4159999999996

>  <TPSA>  (163) 
84.14

>  <logP>  (163) 
2.5387400000000007

>  <HBD>  (163) 
2

>  <HBA>  (163) 
5

>  <SMILES>  (163) 
[H]c1c(C([H])([H])[H])nc(N([H])c2c([H])c([H])c([H])c(N3C([H])([H])C([H])([H])C([H])(C(=O)N([H])[H])C([H])([H])C3([H])[H])c2[H])nc1C([H])([H])[H]

$$$$
Z1526896036_pose3
     RDKit          3D

 47 49  0  0  0  0  0  0  0  0999 V2000
   -0.5708   43.9691   50.9995 C   0  0  0  0  0  0  0  0  0  0  0  0
    0.1810   43.9465   52.2966 C   0  0  0  0  0  0  0  0  0  0  0  0
   -0.4401   44.3251   53.4665 C   0  0  0  0  0  0  0  0  0  0  0  0
    0.3339   44.2861   54.6056 C   0  0  0  0  0  0  0  0  0  0  0  0
   -0.2472   44.6730   55.9316 C   0  0  0  0  0  0  0  0  0  0  0  0
    1.6249   43.9008   54.5877 N   0  0  0  0  0  0  0  0  0  0  0  0
    2.1617   43.5506   53.4102 C   0  0  0  0  0  0  0  0  0  0  0  0
    3.4876   43.1427   53.2894 N   0  0  0  0  0  0  0  0  0  0  0  0
    4.5463   43.4881   52.4419 C   0  0  0  0  0  0  0  0  0  0  0  0
    4.7527   42.7210   51.2872 C   0  0  0  0  0  0  0  0  0  0  0  0
    5.7938   43.0092   50.4079 C   0  0  0  0  0  0  0  0  0  0  0  0
    6.6511   44.0749   50.6751 C   0  0  0  0  0  0  0  0  0  0  0  0
    6.4934   44.8693   51.8195 C   0  0  0  0  0  0  0  0  0  0  0  0
    7.3844   45.9426   52.0442 N   0  0  0  0  0  0  0  0  0  0  0  0
    6.6677   47.2227   52.2461 C   0  0  0  0  0  0  0  0  0  0  0  0
    7.6312   48.4134   52.2289 C   0  0  0  0  0  0  0  0  0  0  0  0
    9.0440   48.0498   52.6843 C   0  0  0  0  0  0  0  0  0  0  0  0
    9.0709   47.7468   54.1796 C   0  0  0  0  0  0  0  0  0  0  0  0
    9.8143   46.6785   54.5761 N   0  0  0  0  0  0  0  0  0  0  0  0
    8.4222   48.3947   54.9963 O   0  0  0  0  0  0  0  0  0  0  0  0
    9.6326   46.9087   51.8415 C   0  0  0  0  0  0  0  0  0  0  0  0
    8.5635   46.0382   51.1715 C   0  0  0  0  0  0  0  0  0  0  0  0
    5.4285   44.5524   52.6849 C   0  0  0  0  0  0  0  0  0  0  0  0
    1.4734   43.5631   52.2560 N   0  0  0  0  0  0  0  0  0  0  0  0
    0.1376   44.0939   50.1673 H   0  0  0  0  0  0  0  0  0  0  0  0
   -1.1180   43.0228   50.8764 H   0  0  0  0  0  0  0  0  0  0  0  0
   -1.2835   44.8070   51.0033 H   0  0  0  0  0  0  0  0  0  0  0  0
   -1.4937   44.6403   53.4899 H   0  0  0  0  0  0  0  0  0  0  0  0
    0.5635   44.8005   56.6640 H   0  0  0  0  0  0  0  0  0  0  0  0
   -0.7998   45.6185   55.8279 H   0  0  0  0  0  0  0  0  0  0  0  0
   -0.9319   43.8841   56.2761 H   0  0  0  0  0  0  0  0  0  0  0  0
    3.6577   42.4073   53.9601 H   0  0  0  0  0  0  0  0  0  0  0  0
    4.0811   41.8769   51.0717 H   0  0  0  0  0  0  0  0  0  0  0  0
    5.9388   42.3974   49.5053 H   0  0  0  0  0  0  0  0  0  0  0  0
    7.4685   44.2975   49.9735 H   0  0  0  0  0  0  0  0  0  0  0  0
    5.9284   47.3493   51.4415 H   0  0  0  0  0  0  0  0  0  0  0  0
    6.1748   47.1914   53.2290 H   0  0  0  0  0  0  0  0  0  0  0  0
    7.6845   48.8055   51.2026 H   0  0  0  0  0  0  0  0  0  0  0  0
    7.2413   49.1602   52.9362 H   0  0  0  0  0  0  0  0  0  0  0  0
    9.6933   48.9223   52.5192 H   0  0  0  0  0  0  0  0  0  0  0  0
    9.7871   46.4021   55.5462 H   0  0  0  0  0  0  0  0  0  0  0  0
   10.1973   46.0305   53.8870 H   0  0  0  0  0  0  0  0  0  0  0  0
   10.2691   47.3454   51.0579 H   0  0  0  0  0  0  0  0  0  0  0  0
   10.2021   46.2596   52.5230 H   0  0  0  0  0  0  0  0  0  0  0  0
    8.2725   46.4902   50.2119 H   0  0  0  0  0  0  0  0  0  0  0  0
    8.9702   45.0312   50.9970 H   0  0  0  0  0  0  0  0  0  0  0  0
    5.2822   45.1637   53.5876 H   0  0  0  0  0  0  0  0  0  0  0  0
  1  2  1  0
  2  3  2  0
  3  4  1  0
  4  5  1  0
  4  6  2  0
  6  7  1  0
  7  8  1  0
  8  9  1  0
  9 10  2  0
 10 11  1  0
 11 12  2  0
 12 13  1  0
 13 14  1  0
 14 15  1  0
 15 16  1  0
 16 17  1  0
 17 18  1  0
 18 19  1  0
 18 20  2  0
 17 21  1  0
 21 22  1  0
 13 23  2  0
  7 24  2  0
 24  2  1  0
 23  9  1  0
 22 14  1  0
  1 25  1  0
  1 26  1  0
  1 27  1  0
  3 28  1  0
  5 29  1  0
  5 30  1  0
  5 31  1  0
  8 32  1  0
 10 33  1  0
 11 34  1  0
 12 35  1  0
 15 36  1  0
 15 37  1  0
 16 38  1  0
 16 39  1  0
 17 40  1  0
 19 41  1  0
 19 42  1  0
 21 43  1  0
 21 44  1  0
 22 45  1  0
 22 46  1  0
 23 47  1  0
M  END
>  <meeko>  (164) 
{"is_sidechain": false}

>  <CID>  (164) 
Z1526896036

>  <pose_index>  (164) 
3

>  <docking_score>  (164) 
-8.895

>  <rmsd_to_best_selected>  (164) 
0.6456030151747887

>  <MWT>  (164) 
325.4159999999996

>  <TPSA>  (164) 
84.14

>  <logP>  (164) 
2.5387400000000007

>  <HBD>  (164) 
2

>  <HBA>  (164) 
5

>  <SMILES>  (164) 
[H]c1c(C([H])([H])[H])nc(N([H])c2c([H])c([H])c([H])c(N3C([H])([H])C([H])([H])C([H])(C(=O)N([H])[H])C([H])([H])C3([H])[H])c2[H])nc1C([H])([H])[H]

$$$$
Z1526896036_pose7
     RDKit          3D

 47 49  0  0  0  0  0  0  0  0999 V2000
   -0.1113   41.9201   55.7728 C   0  0  0  0  0  0  0  0  0  0  0  0
    0.2986   42.6474   54.5286 C   0  0  0  0  0  0  0  0  0  0  0  0
   -0.6504   43.0600   53.6191 C   0  0  0  0  0  0  0  0  0  0  0  0
   -0.1777   43.7070   52.4983 C   0  0  0  0  0  0  0  0  0  0  0  0
   -1.1276   44.2005   51.4496 C   0  0  0  0  0  0  0  0  0  0  0  0
    1.1360   43.9304   52.2936 N   0  0  0  0  0  0  0  0  0  0  0  0
    2.0007   43.4942   53.2216 C   0  0  0  0  0  0  0  0  0  0  0  0
    3.3758   43.6741   53.0972 N   0  0  0  0  0  0  0  0  0  0  0  0
    4.1950   44.3974   52.2222 C   0  0  0  0  0  0  0  0  0  0  0  0
    3.8761   44.3958   50.8576 C   0  0  0  0  0  0  0  0  0  0  0  0
    4.6570   45.0902   49.9352 C   0  0  0  0  0  0  0  0  0  0  0  0
    5.7761   45.7979   50.3691 C   0  0  0  0  0  0  0  0  0  0  0  0
    6.1420   45.8259   51.7216 C   0  0  0  0  0  0  0  0  0  0  0  0
    7.2828   46.5630   52.1134 N   0  0  0  0  0  0  0  0  0  0  0  0
    7.9732   45.9408   53.2662 C   0  0  0  0  0  0  0  0  0  0  0  0
    9.0438   46.8695   53.8463 C   0  0  0  0  0  0  0  0  0  0  0  0
    9.6291   47.8319   52.8129 C   0  0  0  0  0  0  0  0  0  0  0  0
   10.4908   47.0826   51.8012 C   0  0  0  0  0  0  0  0  0  0  0  0
   11.4899   46.3058   52.3012 N   0  0  0  0  0  0  0  0  0  0  0  0
   10.3355   47.1986   50.5887 O   0  0  0  0  0  0  0  0  0  0  0  0
    8.5338   48.6761   52.1445 C   0  0  0  0  0  0  0  0  0  0  0  0
    7.1468   48.0240   52.2043 C   0  0  0  0  0  0  0  0  0  0  0  0
    5.3298   45.1168   52.6270 C   0  0  0  0  0  0  0  0  0  0  0  0
    1.6176   42.8550   54.3390 N   0  0  0  0  0  0  0  0  0  0  0  0
    0.4177   42.3465   56.6379 H   0  0  0  0  0  0  0  0  0  0  0  0
   -1.1966   42.0253   55.9183 H   0  0  0  0  0  0  0  0  0  0  0  0
    0.1440   40.8546   55.6756 H   0  0  0  0  0  0  0  0  0  0  0  0
   -1.7243   42.8830   53.7787 H   0  0  0  0  0  0  0  0  0  0  0  0
   -1.9416   44.7645   51.9284 H   0  0  0  0  0  0  0  0  0  0  0  0
   -0.5908   44.8559   50.7478 H   0  0  0  0  0  0  0  0  0  0  0  0
   -1.5475   43.3435   50.9027 H   0  0  0  0  0  0  0  0  0  0  0  0
    3.8360   43.1028   53.7901 H   0  0  0  0  0  0  0  0  0  0  0  0
    2.9950   43.8373   50.5087 H   0  0  0  0  0  0  0  0  0  0  0  0
    4.3906   45.0796   48.8680 H   0  0  0  0  0  0  0  0  0  0  0  0
    6.3850   46.3458   49.6349 H   0  0  0  0  0  0  0  0  0  0  0  0
    7.2325   45.7167   54.0481 H   0  0  0  0  0  0  0  0  0  0  0  0
    8.4656   45.0208   52.9185 H   0  0  0  0  0  0  0  0  0  0  0  0
    8.5927   47.4595   54.6577 H   0  0  0  0  0  0  0  0  0  0  0  0
    9.8673   46.2350   54.2059 H   0  0  0  0  0  0  0  0  0  0  0  0
   10.2879   48.5402   53.3367 H   0  0  0  0  0  0  0  0  0  0  0  0
   12.1291   45.8635   51.6565 H   0  0  0  0  0  0  0  0  0  0  0  0
   11.7405   46.3566   53.2893 H   0  0  0  0  0  0  0  0  0  0  0  0
    8.4843   49.6503   52.6528 H   0  0  0  0  0  0  0  0  0  0  0  0
    8.8017   48.7772   51.0824 H   0  0  0  0  0  0  0  0  0  0  0  0
    6.6594   48.2876   53.1546 H   0  0  0  0  0  0  0  0  0  0  0  0
    6.5369   48.3865   51.3638 H   0  0  0  0  0  0  0  0  0  0  0  0
    5.5953   45.1272   53.6944 H   0  0  0  0  0  0  0  0  0  0  0  0
  1  2  1  0
  2  3  2  0
  3  4  1  0
  4  5  1  0
  4  6  2  0
  6  7  1  0
  7  8  1  0
  8  9  1  0
  9 10  2  0
 10 11  1  0
 11 12  2  0
 12 13  1  0
 13 14  1  0
 14 15  1  0
 15 16  1  0
 16 17  1  0
 17 18  1  0
 18 19  1  0
 18 20  2  0
 17 21  1  0
 21 22  1  0
 13 23  2  0
  7 24  2  0
 24  2  1  0
 23  9  1  0
 22 14  1  0
  1 25  1  0
  1 26  1  0
  1 27  1  0
  3 28  1  0
  5 29  1  0
  5 30  1  0
  5 31  1  0
  8 32  1  0
 10 33  1  0
 11 34  1  0
 12 35  1  0
 15 36  1  0
 15 37  1  0
 16 38  1  0
 16 39  1  0
 17 40  1  0
 19 41  1  0
 19 42  1  0
 21 43  1  0
 21 44  1  0
 22 45  1  0
 22 46  1  0
 23 47  1  0
M  END
>  <meeko>  (165) 
{"is_sidechain": false}

>  <CID>  (165) 
Z1526896036

>  <pose_index>  (165) 
7

>  <docking_score>  (165) 
-8.651

>  <rmsd_to_best_selected>  (165) 
1.673329241140328

>  <MWT>  (165) 
325.4159999999996

>  <TPSA>  (165) 
84.14

>  <logP>  (165) 
2.5387400000000007

>  <HBD>  (165) 
2

>  <HBA>  (165) 
5

>  <SMILES>  (165) 
[H]c1c(C([H])([H])[H])nc(N([H])c2c([H])c([H])c([H])c(N3C([H])([H])C([H])([H])C([H])(C(=O)N([H])[H])C([H])([H])C3([H])[H])c2[H])nc1C([H])([H])[H]

$$$$
Z1526896036_pose8
     RDKit          3D

 47 49  0  0  0  0  0  0  0  0999 V2000
   -1.2116   43.3636   51.4566 C   0  0  0  0  0  0  0  0  0  0  0  0
   -0.0975   43.2106   52.4485 C   0  0  0  0  0  0  0  0  0  0  0  0
   -0.3755   42.9314   53.7679 C   0  0  0  0  0  0  0  0  0  0  0  0
    0.7113   42.8234   54.6083 C   0  0  0  0  0  0  0  0  0  0  0  0
    0.5181   42.5163   56.0624 C   0  0  0  0  0  0  0  0  0  0  0  0
    1.9770   42.9796   54.1747 N   0  0  0  0  0  0  0  0  0  0  0  0
    2.1683   43.2564   52.8764 C   0  0  0  0  0  0  0  0  0  0  0  0
    3.4383   43.4393   52.3359 N   0  0  0  0  0  0  0  0  0  0  0  0
    4.1062   44.5197   51.7464 C   0  0  0  0  0  0  0  0  0  0  0  0
    3.5433   45.1061   50.6056 C   0  0  0  0  0  0  0  0  0  0  0  0
    4.1639   46.1792   49.9675 C   0  0  0  0  0  0  0  0  0  0  0  0
    5.3653   46.6804   50.4647 C   0  0  0  0  0  0  0  0  0  0  0  0
    5.9733   46.1241   51.5983 C   0  0  0  0  0  0  0  0  0  0  0  0
    7.1889   46.6697   52.0679 N   0  0  0  0  0  0  0  0  0  0  0  0
    7.5752   46.1096   53.3841 C   0  0  0  0  0  0  0  0  0  0  0  0
    8.7420   46.8848   54.0035 C   0  0  0  0  0  0  0  0  0  0  0  0
    9.6506   47.5373   52.9615 C   0  0  0  0  0  0  0  0  0  0  0  0
   10.4464   46.4831   52.1986 C   0  0  0  0  0  0  0  0  0  0  0  0
   11.3143   45.7260   52.9236 N   0  0  0  0  0  0  0  0  0  0  0  0
   10.3568   46.3402   50.9822 O   0  0  0  0  0  0  0  0  0  0  0  0
    8.8609   48.4689   52.0285 C   0  0  0  0  0  0  0  0  0  0  0  0
    7.3687   48.1240   51.9520 C   0  0  0  0  0  0  0  0  0  0  0  0
    5.3178   45.0436   52.2204 C   0  0  0  0  0  0  0  0  0  0  0  0
    1.1620   43.3774   51.9954 N   0  0  0  0  0  0  0  0  0  0  0  0
   -2.0278   43.9460   51.9089 H   0  0  0  0  0  0  0  0  0  0  0  0
   -0.8385   43.8872   50.5641 H   0  0  0  0  0  0  0  0  0  0  0  0
   -1.5857   42.3699   51.1692 H   0  0  0  0  0  0  0  0  0  0  0  0
   -1.4060   42.8020   54.1304 H   0  0  0  0  0  0  0  0  0  0  0  0
    0.6370   43.4381   56.6508 H   0  0  0  0  0  0  0  0  0  0  0  0
   -0.4912   42.1083   56.2201 H   0  0  0  0  0  0  0  0  0  0  0  0
    1.2668   41.7772   56.3837 H   0  0  0  0  0  0  0  0  0  0  0  0
    3.9285   42.5573   52.3660 H   0  0  0  0  0  0  0  0  0  0  0  0
    2.5963   44.7136   50.2067 H   0  0  0  0  0  0  0  0  0  0  0  0
    3.7064   46.6290   49.0740 H   0  0  0  0  0  0  0  0  0  0  0  0
    5.8462   47.5297   49.9572 H   0  0  0  0  0  0  0  0  0  0  0  0
    6.7110   46.1622   54.0625 H   0  0  0  0  0  0  0  0  0  0  0  0
    7.8936   45.0672   53.2355 H   0  0  0  0  0  0  0  0  0  0  0  0
    8.3330   47.6724   54.6533 H   0  0  0  0  0  0  0  0  0  0  0  0
    9.3534   46.1629   54.5649 H   0  0  0  0  0  0  0  0  0  0  0  0
   10.3778   48.1719   53.4892 H   0  0  0  0  0  0  0  0  0  0  0  0
   11.9151   45.0768   52.4365 H   0  0  0  0  0  0  0  0  0  0  0  0
   11.5291   45.9682   53.8911 H   0  0  0  0  0  0  0  0  0  0  0  0
    8.9629   49.5005   52.3963 H   0  0  0  0  0  0  0  0  0  0  0  0
    9.2766   48.3478   51.0172 H   0  0  0  0  0  0  0  0  0  0  0  0
    6.8353   48.6248   52.7734 H   0  0  0  0  0  0  0  0  0  0  0  0
    6.9654   48.4647   50.9870 H   0  0  0  0  0  0  0  0  0  0  0  0
    5.7745   44.5927   53.1138 H   0  0  0  0  0  0  0  0  0  0  0  0
  1  2  1  0
  2  3  2  0
  3  4  1  0
  4  5  1  0
  4  6  2  0
  6  7  1  0
  7  8  1  0
  8  9  1  0
  9 10  2  0
 10 11  1  0
 11 12  2  0
 12 13  1  0
 13 14  1  0
 14 15  1  0
 15 16  1  0
 16 17  1  0
 17 18  1  0
 18 19  1  0
 18 20  2  0
 17 21  1  0
 21 22  1  0
 13 23  2  0
  7 24  2  0
 24  2  1  0
 23  9  1  0
 22 14  1  0
  1 25  1  0
  1 26  1  0
  1 27  1  0
  3 28  1  0
  5 29  1  0
  5 30  1  0
  5 31  1  0
  8 32  1  0
 10 33  1  0
 11 34  1  0
 12 35  1  0
 15 36  1  0
 15 37  1  0
 16 38  1  0
 16 39  1  0
 17 40  1  0
 19 41  1  0
 19 42  1  0
 21 43  1  0
 21 44  1  0
 22 45  1  0
 22 46  1  0
 23 47  1  0
M  END
>  <meeko>  (166) 
{"is_sidechain": false}

>  <CID>  (166) 
Z1526896036

>  <pose_index>  (166) 
8

>  <docking_score>  (166) 
-8.595

>  <rmsd_to_best_selected>  (166) 
1.256959722536655

>  <MWT>  (166) 
325.4159999999996

>  <TPSA>  (166) 
84.14

>  <logP>  (166) 
2.5387400000000007

>  <HBD>  (166) 
2

>  <HBA>  (166) 
5

>  <SMILES>  (166) 
[H]c1c(C([H])([H])[H])nc(N([H])c2c([H])c([H])c([H])c(N3C([H])([H])C([H])([H])C([H])(C(=O)N([H])[H])C([H])([H])C3([H])[H])c2[H])nc1C([H])([H])[H]

$$$$
Z1526896036_pose9
     RDKit          3D

 47 49  0  0  0  0  0  0  0  0999 V2000
   -1.0379   44.2240   51.6773 C   0  0  0  0  0  0  0  0  0  0  0  0
    0.0025   43.6293   52.5767 C   0  0  0  0  0  0  0  0  0  0  0  0
   -0.3600   43.0614   53.7779 C   0  0  0  0  0  0  0  0  0  0  0  0
    0.6668   42.5529   54.5441 C   0  0  0  0  0  0  0  0  0  0  0  0
    0.3803   41.9097   55.8663 C   0  0  0  0  0  0  0  0  0  0  0  0
    1.9547   42.6032   54.1499 N   0  0  0  0  0  0  0  0  0  0  0  0
    2.2300   43.1758   52.9698 C   0  0  0  0  0  0  0  0  0  0  0  0
    3.5291   43.2791   52.4786 N   0  0  0  0  0  0  0  0  0  0  0  0
    4.2520   44.2817   51.8207 C   0  0  0  0  0  0  0  0  0  0  0  0
    3.8338   44.6727   50.5423 C   0  0  0  0  0  0  0  0  0  0  0  0
    4.5164   45.6591   49.8331 C   0  0  0  0  0  0  0  0  0  0  0  0
    5.6363   46.2685   50.3959 C   0  0  0  0  0  0  0  0  0  0  0  0
    6.1003   45.9078   51.6688 C   0  0  0  0  0  0  0  0  0  0  0  0
    7.2364   46.5583   52.1992 N   0  0  0  0  0  0  0  0  0  0  0  0
    7.4054   46.2842   53.6447 C   0  0  0  0  0  0  0  0  0  0  0  0
    8.4735   47.1888   54.2662 C   0  0  0  0  0  0  0  0  0  0  0  0
    9.5423   47.6310   53.2677 C   0  0  0  0  0  0  0  0  0  0  0  0
   10.4302   46.4562   52.8680 C   0  0  0  0  0  0  0  0  0  0  0  0
   10.8921   46.4439   51.5884 N   0  0  0  0  0  0  0  0  0  0  0  0
   10.6900   45.5349   53.6367 O   0  0  0  0  0  0  0  0  0  0  0  0
    8.9205   48.3386   52.0540 C   0  0  0  0  0  0  0  0  0  0  0  0
    7.4537   47.9616   51.8188 C   0  0  0  0  0  0  0  0  0  0  0  0
    5.3847   44.9103   52.3587 C   0  0  0  0  0  0  0  0  0  0  0  0
    1.2856   43.6946   52.1662 N   0  0  0  0  0  0  0  0  0  0  0  0
   -1.5057   45.0851   52.1769 H   0  0  0  0  0  0  0  0  0  0  0  0
   -0.5665   44.5554   50.7403 H   0  0  0  0  0  0  0  0  0  0  0  0
   -1.8053   43.4681   51.4543 H   0  0  0  0  0  0  0  0  0  0  0  0
   -1.4087   43.0162   54.1069 H   0  0  0  0  0  0  0  0  0  0  0  0
    1.1433   42.2173   56.5966 H   0  0  0  0  0  0  0  0  0  0  0  0
   -0.6129   42.2239   56.2194 H   0  0  0  0  0  0  0  0  0  0  0  0
    0.4003   40.8157   55.7538 H   0  0  0  0  0  0  0  0  0  0  0  0
    3.9942   42.3940   52.6206 H   0  0  0  0  0  0  0  0  0  0  0  0
    2.9526   44.1934   50.0910 H   0  0  0  0  0  0  0  0  0  0  0  0
    4.1722   45.9561   48.8314 H   0  0  0  0  0  0  0  0  0  0  0  0
    6.1669   47.0483   49.8299 H   0  0  0  0  0  0  0  0  0  0  0  0
    6.4473   46.4590   54.1561 H   0  0  0  0  0  0  0  0  0  0  0  0
    7.7271   45.2389   53.7626 H   0  0  0  0  0  0  0  0  0  0  0  0
    7.9805   48.0851   54.6707 H   0  0  0  0  0  0  0  0  0  0  0  0
    8.9795   46.6064   55.0504 H   0  0  0  0  0  0  0  0  0  0  0  0
   10.1886   48.3721   53.7608 H   0  0  0  0  0  0  0  0  0  0  0  0
   11.4138   45.6405   51.2689 H   0  0  0  0  0  0  0  0  0  0  0  0
   10.5275   47.1026   50.8992 H   0  0  0  0  0  0  0  0  0  0  0  0
    8.9803   49.4252   52.2147 H   0  0  0  0  0  0  0  0  0  0  0  0
    9.4855   48.0195   51.1658 H   0  0  0  0  0  0  0  0  0  0  0  0
    6.8071   48.6102   52.4281 H   0  0  0  0  0  0  0  0  0  0  0  0
    7.2098   48.0927   50.7542 H   0  0  0  0  0  0  0  0  0  0  0  0
    5.7280   44.6119   53.3602 H   0  0  0  0  0  0  0  0  0  0  0  0
  1  2  1  0
  2  3  2  0
  3  4  1  0
  4  5  1  0
  4  6  2  0
  6  7  1  0
  7  8  1  0
  8  9  1  0
  9 10  2  0
 10 11  1  0
 11 12  2  0
 12 13  1  0
 13 14  1  0
 14 15  1  0
 15 16  1  0
 16 17  1  0
 17 18  1  0
 18 19  1  0
 18 20  2  0
 17 21  1  0
 21 22  1  0
 13 23  2  0
  7 24  2  0
 24  2  1  0
 23  9  1  0
 22 14  1  0
  1 25  1  0
  1 26  1  0
  1 27  1  0
  3 28  1  0
  5 29  1  0
  5 30  1  0
  5 31  1  0
  8 32  1  0
 10 33  1  0
 11 34  1  0
 12 35  1  0
 15 36  1  0
 15 37  1  0
 16 38  1  0
 16 39  1  0
 17 40  1  0
 19 41  1  0
 19 42  1  0
 21 43  1  0
 21 44  1  0
 22 45  1  0
 22 46  1  0
 23 47  1  0
M  END
>  <meeko>  (167) 
{"is_sidechain": false}

>  <CID>  (167) 
Z1526896036

>  <pose_index>  (167) 
9

>  <docking_score>  (167) 
-8.365

>  <rmsd_to_best_selected>  (167) 
1.1344727951963582

>  <MWT>  (167) 
325.4159999999996

>  <TPSA>  (167) 
84.14

>  <logP>  (167) 
2.5387400000000007

>  <HBD>  (167) 
2

>  <HBA>  (167) 
5

>  <SMILES>  (167) 
[H]c1c(C([H])([H])[H])nc(N([H])c2c([H])c([H])c([H])c(N3C([H])([H])C([H])([H])C([H])(C(=O)N([H])[H])C([H])([H])C3([H])[H])c2[H])nc1C([H])([H])[H]

$$$$
Z1546707089_pose1
     RDKit          3D

 55 58  0  0  0  0  0  0  0  0999 V2000
    7.9710   45.2950   50.0810 N   0  0  0  0  0  0  0  0  0  0  0  0
    7.4170   45.6750   51.3090 C   0  0  0  0  0  0  0  0  0  0  0  0
    6.1050   45.4430   51.4360 N   0  0  0  0  0  0  0  0  0  0  0  0
    5.5110   45.7980   52.5850 C   0  0  0  0  0  0  0  0  0  0  0  0
    4.1450   45.5330   52.7390 N   0  0  0  0  0  0  0  0  0  0  0  0
    3.2510   46.4610   52.0610 C   0  0  0  0  0  0  0  0  0  0  0  0
    1.8420   46.3550   52.6610 C   0  0  0  0  0  0  0  0  0  0  0  0
    1.5890   45.0400   53.4290 C   0  0  0  0  0  0  0  0  0  0  0  0
    0.0800   44.8310   53.6020 C   0  0  0  0  0  0  0  0  0  0  0  0
   -0.4300   45.2540   54.9760 N   0  0  0  0  0  4  0  0  0  0  0  0
    0.6320   45.0110   56.0270 C   0  0  0  0  0  0  0  0  0  0  0  0
    0.5430   45.9780   57.2160 C   0  0  0  0  0  0  0  0  0  0  0  0
   -0.7520   46.7700   57.3910 C   0  0  0  0  0  0  0  0  0  0  0  0
   -2.0160   45.9230   57.5150 C   0  0  0  0  0  0  0  0  0  0  0  0
   -2.6590   45.4780   56.2000 C   0  0  0  0  0  0  0  0  0  0  0  0
   -1.7700   44.6260   55.3050 C   0  0  0  0  0  0  0  0  0  0  0  0
    2.2980   43.8930   52.6990 C   0  0  0  0  0  0  0  0  0  0  0  0
    3.8170   44.1100   52.6700 C   0  0  0  0  0  0  0  0  0  0  0  0
    6.1790   46.3580   53.6030 N   0  0  0  0  0  0  0  0  0  0  0  0
    7.4860   46.5920   53.4670 C   0  0  0  0  0  0  0  0  0  0  0  0
    8.1800   47.1790   54.5180 C   0  0  0  0  0  0  0  0  0  0  0  0
    9.5460   47.4590   54.4360 C   0  0  0  0  0  0  0  0  0  0  0  0
   10.2440   47.1530   53.2750 C   0  0  0  0  0  0  0  0  0  0  0  0
    9.5700   46.5620   52.2100 C   0  0  0  0  0  0  0  0  0  0  0  0
    8.1880   46.2730   52.3070 C   0  0  0  0  0  0  0  0  0  0  0  0
    7.2180   45.2650   49.3990 H   0  0  0  0  0  0  0  0  0  0  0  0
    8.4490   44.4010   50.1510 H   0  0  0  0  0  0  0  0  0  0  0  0
    3.6257   47.4875   52.1870 H   0  0  0  0  0  0  0  0  0  0  0  0
    3.2105   46.2110   50.9906 H   0  0  0  0  0  0  0  0  0  0  0  0
    1.6967   47.1956   53.3554 H   0  0  0  0  0  0  0  0  0  0  0  0
    1.1333   46.3762   51.8200 H   0  0  0  0  0  0  0  0  0  0  0  0
    2.0111   45.0783   54.4441 H   0  0  0  0  0  0  0  0  0  0  0  0
   -0.4450   45.4216   52.8368 H   0  0  0  0  0  0  0  0  0  0  0  0
   -0.1156   43.7536   53.4974 H   0  0  0  0  0  0  0  0  0  0  0  0
   -0.5670   46.2680   54.9200 H   0  0  0  0  0  0  0  0  0  0  0  0
    0.5215   43.9835   56.4038 H   0  0  0  0  0  0  0  0  0  0  0  0
    1.6083   45.1741   55.5471 H   0  0  0  0  0  0  0  0  0  0  0  0
    0.6935   45.3876   58.1318 H   0  0  0  0  0  0  0  0  0  0  0  0
    1.3100   46.7399   57.0132 H   0  0  0  0  0  0  0  0  0  0  0  0
   -0.6588   47.3789   58.3023 H   0  0  0  0  0  0  0  0  0  0  0  0
   -0.8720   47.3681   56.4756 H   0  0  0  0  0  0  0  0  0  0  0  0
   -1.7601   45.0189   58.0870 H   0  0  0  0  0  0  0  0  0  0  0  0
   -2.7592   46.5705   58.0033 H   0  0  0  0  0  0  0  0  0  0  0  0
   -3.5598   44.8945   56.4410 H   0  0  0  0  0  0  0  0  0  0  0  0
   -2.8723   46.3977   55.6355 H   0  0  0  0  0  0  0  0  0  0  0  0
   -1.5858   43.6683   55.8139 H   0  0  0  0  0  0  0  0  0  0  0  0
   -2.3048   44.5077   54.3511 H   0  0  0  0  0  0  0  0  0  0  0  0
    2.0802   42.9480   53.2182 H   0  0  0  0  0  0  0  0  0  0  0  0
    1.9306   43.8592   51.6627 H   0  0  0  0  0  0  0  0  0  0  0  0
    4.2704   43.5944   53.5294 H   0  0  0  0  0  0  0  0  0  0  0  0
    4.2106   43.7053   51.7259 H   0  0  0  0  0  0  0  0  0  0  0  0
    7.6379   47.4305   55.4415 H   0  0  0  0  0  0  0  0  0  0  0  0
   10.0670   47.9202   55.2879 H   0  0  0  0  0  0  0  0  0  0  0  0
   11.3185   47.3754   53.1978 H   0  0  0  0  0  0  0  0  0  0  0  0
   10.1155   46.3179   51.2865 H   0  0  0  0  0  0  0  0  0  0  0  0
  1  2  1  0
  2  3  2  0
  3  4  1  0
  4  5  1  0
  5  6  1  0
  6  7  1  0
  7  8  1  0
  8  9  1  0
  9 10  1  0
 10 11  1  0
 11 12  1  0
 12 13  1  0
 13 14  1  0
 14 15  1  0
 15 16  1  0
  8 17  1  0
 17 18  1  0
  4 19  2  0
 19 20  1  0
 20 21  2  0
 21 22  1  0
 22 23  2  0
 23 24  1  0
 24 25  2  0
 25  2  1  0
 18  5  1  0
 25 20  1  0
 16 10  1  0
  1 26  1  0
  1 27  1  0
  6 28  1  0
  6 29  1  0
  7 30  1  0
  7 31  1  0
  8 32  1  0
  9 33  1  0
  9 34  1  0
 10 35  1  0
 11 36  1  0
 11 37  1  0
 12 38  1  0
 12 39  1  0
 13 40  1  0
 13 41  1  0
 14 42  1  0
 14 43  1  0
 15 44  1  0
 15 45  1  0
 16 46  1  0
 16 47  1  0
 17 48  1  0
 17 49  1  0
 18 50  1  0
 18 51  1  0
 21 52  1  0
 22 53  1  0
 23 54  1  0
 24 55  1  0
M  CHG  1  10   1
M  END
>  <meeko>  (168) 
{"is_sidechain": false}

>  <CID>  (168) 
Z1546707089

>  <pose_index>  (168) 
1

>  <docking_score>  (168) 
-6.726

>  <rmsd_to_best_selected>  (168) 
0.0

>  <MWT>  (168) 
340.4949999999995

>  <TPSA>  (168) 
59.48

>  <logP>  (168) 
1.8873

>  <HBD>  (168) 
2

>  <HBA>  (168) 
4

>  <SMILES>  (168) 
[H]c1c([H])c([H])c2c(N([H])[H])nc(N3C([H])([H])C([H])([H])C([H])(C([H])([H])[N+]4([H])C([H])([H])C([H])([H])C([H])([H])C([H])([H])C([H])([H])C4([H])[H])C([H])([H])C3([H])[H])nc2c1[H]

$$$$
Z1546707089_pose4
     RDKit          3D

 55 58  0  0  0  0  0  0  0  0999 V2000
    7.7543   47.6335   50.4373 N   0  0  0  0  0  0  0  0  0  0  0  0
    7.2373   46.9382   51.5379 C   0  0  0  0  0  0  0  0  0  0  0  0
    5.9027   46.9465   51.6394 N   0  0  0  0  0  0  0  0  0  0  0  0
    5.3470   46.3090   52.6794 C   0  0  0  0  0  0  0  0  0  0  0  0
    3.9507   46.2869   52.7785 N   0  0  0  0  0  0  0  0  0  0  0  0
    3.3109   47.5933   52.8511 C   0  0  0  0  0  0  0  0  0  0  0  0
    1.8882   47.4431   53.4070 C   0  0  0  0  0  0  0  0  0  0  0  0
    1.3210   46.0121   53.2911 C   0  0  0  0  0  0  0  0  0  0  0  0
   -0.2030   46.0514   53.4508 C   0  0  0  0  0  0  0  0  0  0  0  0
   -0.7191   45.0875   54.5155 N   0  0  0  0  0  4  0  0  0  0  0  0
   -1.5559   45.8319   55.5338 C   0  0  0  0  0  0  0  0  0  0  0  0
   -2.2471   44.9061   56.5450 C   0  0  0  0  0  0  0  0  0  0  0  0
   -1.4991   44.5809   57.8372 C   0  0  0  0  0  0  0  0  0  0  0  0
   -0.0952   44.0097   57.6452 C   0  0  0  0  0  0  0  0  0  0  0  0
    0.7557   44.6537   56.5538 C   0  0  0  0  0  0  0  0  0  0  0  0
    0.3976   44.2630   55.1261 C   0  0  0  0  0  0  0  0  0  0  0  0
    1.7928   45.3958   51.9684 C   0  0  0  0  0  0  0  0  0  0  0  0
    3.3226   45.2759   51.9298 C   0  0  0  0  0  0  0  0  0  0  0  0
    6.0694   45.6606   53.6028 N   0  0  0  0  0  0  0  0  0  0  0  0
    7.4008   45.6619   53.5000 C   0  0  0  0  0  0  0  0  0  0  0  0
    8.1534   44.9974   54.4592 C   0  0  0  0  0  0  0  0  0  0  0  0
    9.5495   44.9694   54.4135 C   0  0  0  0  0  0  0  0  0  0  0  0
   10.2191   45.6235   53.3879 C   0  0  0  0  0  0  0  0  0  0  0  0
    9.4852   46.2945   52.4137 C   0  0  0  0  0  0  0  0  0  0  0  0
    8.0707   46.3092   52.4636 C   0  0  0  0  0  0  0  0  0  0  0  0
    8.4433   47.0347   49.9910 H   0  0  0  0  0  0  0  0  0  0  0  0
    8.1562   48.5228   50.7174 H   0  0  0  0  0  0  0  0  0  0  0  0
    3.8946   48.2499   53.5131 H   0  0  0  0  0  0  0  0  0  0  0  0
    3.2636   48.0319   51.8434 H   0  0  0  0  0  0  0  0  0  0  0  0
    1.8996   47.7265   54.4698 H   0  0  0  0  0  0  0  0  0  0  0  0
    1.2386   48.0947   52.8041 H   0  0  0  0  0  0  0  0  0  0  0  0
    1.6970   45.3634   54.0959 H   0  0  0  0  0  0  0  0  0  0  0  0
   -0.4994   47.0732   53.7305 H   0  0  0  0  0  0  0  0  0  0  0  0
   -0.6413   45.7436   52.4900 H   0  0  0  0  0  0  0  0  0  0  0  0
   -1.3480   44.4449   54.0264 H   0  0  0  0  0  0  0  0  0  0  0  0
   -0.9019   46.5241   56.0844 H   0  0  0  0  0  0  0  0  0  0  0  0
   -2.3472   46.3603   54.9818 H   0  0  0  0  0  0  0  0  0  0  0  0
   -3.1991   45.3797   56.8268 H   0  0  0  0  0  0  0  0  0  0  0  0
   -2.3343   43.9412   56.0241 H   0  0  0  0  0  0  0  0  0  0  0  0
   -1.4131   45.5074   58.4238 H   0  0  0  0  0  0  0  0  0  0  0  0
   -2.0833   43.7969   58.3412 H   0  0  0  0  0  0  0  0  0  0  0  0
    0.4438   44.1188   58.5979 H   0  0  0  0  0  0  0  0  0  0  0  0
   -0.2446   42.9686   57.3233 H   0  0  0  0  0  0  0  0  0  0  0  0
    0.6514   45.7451   56.6427 H   0  0  0  0  0  0  0  0  0  0  0  0
    1.7813   44.2911   56.7176 H   0  0  0  0  0  0  0  0  0  0  0  0
    1.2949   44.3817   54.5010 H   0  0  0  0  0  0  0  0  0  0  0  0
    0.0378   43.2242   55.1644 H   0  0  0  0  0  0  0  0  0  0  0  0
    1.3511   44.3941   51.8609 H   0  0  0  0  0  0  0  0  0  0  0  0
    1.4725   46.0498   51.1440 H   0  0  0  0  0  0  0  0  0  0  0  0
    3.6139   44.2766   52.2857 H   0  0  0  0  0  0  0  0  0  0  0  0
    3.6595   45.4306   50.8942 H   0  0  0  0  0  0  0  0  0  0  0  0
    7.6354   44.4780   55.2789 H   0  0  0  0  0  0  0  0  0  0  0  0
   10.1163   44.4310   55.1874 H   0  0  0  0  0  0  0  0  0  0  0  0
   11.3182   45.6115   53.3456 H   0  0  0  0  0  0  0  0  0  0  0  0
   10.0084   46.8171   51.5993 H   0  0  0  0  0  0  0  0  0  0  0  0
  1  2  1  0
  2  3  2  0
  3  4  1  0
  4  5  1  0
  5  6  1  0
  6  7  1  0
  7  8  1  0
  8  9  1  0
  9 10  1  0
 10 11  1  0
 11 12  1  0
 12 13  1  0
 13 14  1  0
 14 15  1  0
 15 16  1  0
  8 17  1  0
 17 18  1  0
  4 19  2  0
 19 20  1  0
 20 21  2  0
 21 22  1  0
 22 23  2  0
 23 24  1  0
 24 25  2  0
 25  2  1  0
 18  5  1  0
 25 20  1  0
 16 10  1  0
  1 26  1  0
  1 27  1  0
  6 28  1  0
  6 29  1  0
  7 30  1  0
  7 31  1  0
  8 32  1  0
  9 33  1  0
  9 34  1  0
 10 35  1  0
 11 36  1  0
 11 37  1  0
 12 38  1  0
 12 39  1  0
 13 40  1  0
 13 41  1  0
 14 42  1  0
 14 43  1  0
 15 44  1  0
 15 45  1  0
 16 46  1  0
 16 47  1  0
 17 48  1  0
 17 49  1  0
 18 50  1  0
 18 51  1  0
 21 52  1  0
 22 53  1  0
 23 54  1  0
 24 55  1  0
M  CHG  1  10   1
M  END
>  <meeko>  (169) 
{"is_sidechain": false}

>  <CID>  (169) 
Z1546707089

>  <pose_index>  (169) 
4

>  <docking_score>  (169) 
-6.371

>  <rmsd_to_best_selected>  (169) 
0.9440873914743143

>  <MWT>  (169) 
340.4949999999995

>  <TPSA>  (169) 
59.48

>  <logP>  (169) 
1.8873

>  <HBD>  (169) 
2

>  <HBA>  (169) 
4

>  <SMILES>  (169) 
[H]c1c([H])c([H])c2c(N([H])[H])nc(N3C([H])([H])C([H])([H])C([H])(C([H])([H])[N+]4([H])C([H])([H])C([H])([H])C([H])([H])C([H])([H])C([H])([H])C4([H])[H])C([H])([H])C3([H])[H])nc2c1[H]

$$$$
Z1546707089_pose5
     RDKit          3D

 55 58  0  0  0  0  0  0  0  0999 V2000
    7.7248   46.0796   49.9051 N   0  0  0  0  0  0  0  0  0  0  0  0
    7.2791   46.1019   51.2324 C   0  0  0  0  0  0  0  0  0  0  0  0
    5.9501   46.1502   51.3848 N   0  0  0  0  0  0  0  0  0  0  0  0
    5.4610   46.1866   52.6322 C   0  0  0  0  0  0  0  0  0  0  0  0
    4.0716   46.2081   52.8030 N   0  0  0  0  0  0  0  0  0  0  0  0
    3.5957   46.9905   53.9349 C   0  0  0  0  0  0  0  0  0  0  0  0
    2.1593   46.5738   54.2856 C   0  0  0  0  0  0  0  0  0  0  0  0
    1.4238   45.8492   53.1398 C   0  0  0  0  0  0  0  0  0  0  0  0
   -0.0859   45.8691   53.4076 C   0  0  0  0  0  0  0  0  0  0  0  0
   -0.4482   45.4424   54.8265 N   0  0  0  0  0  4  0  0  0  0  0  0
    0.2277   44.1319   55.1690 C   0  0  0  0  0  0  0  0  0  0  0  0
    0.7140   44.0605   56.6221 C   0  0  0  0  0  0  0  0  0  0  0  0
   -0.2995   44.3582   57.7259 C   0  0  0  0  0  0  0  0  0  0  0  0
   -1.7639   44.2103   57.3158 C   0  0  0  0  0  0  0  0  0  0  0  0
   -2.3599   45.3705   56.5171 C   0  0  0  0  0  0  0  0  0  0  0  0
   -1.9475   45.4349   55.0529 C   0  0  0  0  0  0  0  0  0  0  0  0
    1.8283   46.4882   51.8053 C   0  0  0  0  0  0  0  0  0  0  0  0
    3.3315   46.3226   51.5472 C   0  0  0  0  0  0  0  0  0  0  0  0
    6.2438   46.1641   53.7194 N   0  0  0  0  0  0  0  0  0  0  0  0
    7.5681   46.1221   53.5603 C   0  0  0  0  0  0  0  0  0  0  0  0
    8.3842   46.1059   54.6855 C   0  0  0  0  0  0  0  0  0  0  0  0
    9.7765   46.0720   54.5864 C   0  0  0  0  0  0  0  0  0  0  0  0
   10.3802   46.0590   53.3362 C   0  0  0  0  0  0  0  0  0  0  0  0
    9.5824   46.0725   52.1945 C   0  0  0  0  0  0  0  0  0  0  0  0
    8.1716   46.0973   52.3044 C   0  0  0  0  0  0  0  0  0  0  0  0
    7.3741   46.9174   49.4492 H   0  0  0  0  0  0  0  0  0  0  0  0
    7.4200   45.2375   49.4259 H   0  0  0  0  0  0  0  0  0  0  0  0
    4.2494   46.8143   54.8018 H   0  0  0  0  0  0  0  0  0  0  0  0
    3.6109   48.0584   53.6715 H   0  0  0  0  0  0  0  0  0  0  0  0
    2.1960   45.9005   55.1547 H   0  0  0  0  0  0  0  0  0  0  0  0
    1.5992   47.4977   54.4920 H   0  0  0  0  0  0  0  0  0  0  0  0
    1.7115   44.7889   53.0838 H   0  0  0  0  0  0  0  0  0  0  0  0
   -0.4569   46.8917   53.2441 H   0  0  0  0  0  0  0  0  0  0  0  0
   -0.5504   45.1473   52.7196 H   0  0  0  0  0  0  0  0  0  0  0  0
   -0.0453   46.1550   55.4418 H   0  0  0  0  0  0  0  0  0  0  0  0
   -0.4893   43.3149   55.0004 H   0  0  0  0  0  0  0  0  0  0  0  0
    1.1148   44.0451   54.5244 H   0  0  0  0  0  0  0  0  0  0  0  0
    1.0946   43.0424   56.7915 H   0  0  0  0  0  0  0  0  0  0  0  0
    1.4598   44.8648   56.7054 H   0  0  0  0  0  0  0  0  0  0  0  0
   -0.1076   43.6677   58.5605 H   0  0  0  0  0  0  0  0  0  0  0  0
   -0.1608   45.4161   57.9932 H   0  0  0  0  0  0  0  0  0  0  0  0
   -1.8510   43.3008   56.7032 H   0  0  0  0  0  0  0  0  0  0  0  0
   -2.3322   44.1771   58.2571 H   0  0  0  0  0  0  0  0  0  0  0  0
   -3.4557   45.2829   56.5576 H   0  0  0  0  0  0  0  0  0  0  0  0
   -1.9725   46.2891   56.9819 H   0  0  0  0  0  0  0  0  0  0  0  0
   -2.3694   44.5596   54.5374 H   0  0  0  0  0  0  0  0  0  0  0  0
   -2.3301   46.3883   54.6596 H   0  0  0  0  0  0  0  0  0  0  0  0
    1.2685   46.0047   50.9911 H   0  0  0  0  0  0  0  0  0  0  0  0
    1.5973   47.5628   51.8481 H   0  0  0  0  0  0  0  0  0  0  0  0
    3.4955   45.4139   50.9494 H   0  0  0  0  0  0  0  0  0  0  0  0
    3.6934   47.2105   51.0080 H   0  0  0  0  0  0  0  0  0  0  0  0
    7.9198   46.1202   55.6826 H   0  0  0  0  0  0  0  0  0  0  0  0
   10.3937   46.0555   55.4967 H   0  0  0  0  0  0  0  0  0  0  0  0
   11.4765   46.0384   53.2482 H   0  0  0  0  0  0  0  0  0  0  0  0
   10.0523   46.0638   51.2000 H   0  0  0  0  0  0  0  0  0  0  0  0
  1  2  1  0
  2  3  2  0
  3  4  1  0
  4  5  1  0
  5  6  1  0
  6  7  1  0
  7  8  1  0
  8  9  1  0
  9 10  1  0
 10 11  1  0
 11 12  1  0
 12 13  1  0
 13 14  1  0
 14 15  1  0
 15 16  1  0
  8 17  1  0
 17 18  1  0
  4 19  2  0
 19 20  1  0
 20 21  2  0
 21 22  1  0
 22 23  2  0
 23 24  1  0
 24 25  2  0
 25  2  1  0
 18  5  1  0
 25 20  1  0
 16 10  1  0
  1 26  1  0
  1 27  1  0
  6 28  1  0
  6 29  1  0
  7 30  1  0
  7 31  1  0
  8 32  1  0
  9 33  1  0
  9 34  1  0
 10 35  1  0
 11 36  1  0
 11 37  1  0
 12 38  1  0
 12 39  1  0
 13 40  1  0
 13 41  1  0
 14 42  1  0
 14 43  1  0
 15 44  1  0
 15 45  1  0
 16 46  1  0
 16 47  1  0
 17 48  1  0
 17 49  1  0
 18 50  1  0
 18 51  1  0
 21 52  1  0
 22 53  1  0
 23 54  1  0
 24 55  1  0
M  CHG  1  10   1
M  END
>  <meeko>  (170) 
{"is_sidechain": false}

>  <CID>  (170) 
Z1546707089

>  <pose_index>  (170) 
5

>  <docking_score>  (170) 
-6.298

>  <rmsd_to_best_selected>  (170) 
0.8302733248926428

>  <MWT>  (170) 
340.4949999999995

>  <TPSA>  (170) 
59.48

>  <logP>  (170) 
1.8873

>  <HBD>  (170) 
2

>  <HBA>  (170) 
4

>  <SMILES>  (170) 
[H]c1c([H])c([H])c2c(N([H])[H])nc(N3C([H])([H])C([H])([H])C([H])(C([H])([H])[N+]4([H])C([H])([H])C([H])([H])C([H])([H])C([H])([H])C([H])([H])C4([H])[H])C([H])([H])C3([H])[H])nc2c1[H]

$$$$
Z1546707089_pose6
     RDKit          3D

 55 58  0  0  0  0  0  0  0  0999 V2000
    7.2301   47.2415   49.5573 N   0  0  0  0  0  0  0  0  0  0  0  0
    7.0992   46.8085   50.8835 C   0  0  0  0  0  0  0  0  0  0  0  0
    5.8421   46.7477   51.3393 N   0  0  0  0  0  0  0  0  0  0  0  0
    5.6503   46.3529   52.6061 C   0  0  0  0  0  0  0  0  0  0  0  0
    4.3386   46.2569   53.0834 N   0  0  0  0  0  0  0  0  0  0  0  0
    3.8549   44.9018   53.3066 C   0  0  0  0  0  0  0  0  0  0  0  0
    2.3212   44.9047   53.3763 C   0  0  0  0  0  0  0  0  0  0  0  0
    1.7125   46.2894   53.6826 C   0  0  0  0  0  0  0  0  0  0  0  0
    0.2648   46.1190   54.1570 C   0  0  0  0  0  0  0  0  0  0  0  0
    0.0271   44.8061   54.8963 N   0  0  0  0  0  4  0  0  0  0  0  0
   -1.3180   44.2256   54.5147 C   0  0  0  0  0  0  0  0  0  0  0  0
   -2.5008   45.1115   54.9267 C   0  0  0  0  0  0  0  0  0  0  0  0
   -2.6218   45.4936   56.4019 C   0  0  0  0  0  0  0  0  0  0  0  0
   -2.1119   44.4430   57.3858 C   0  0  0  0  0  0  0  0  0  0  0  0
   -0.6365   44.0225   57.2329 C   0  0  0  0  0  0  0  0  0  0  0  0
    0.2288   44.9498   56.3920 C   0  0  0  0  0  0  0  0  0  0  0  0
    2.6160   47.0198   54.6833 C   0  0  0  0  0  0  0  0  0  0  0  0
    4.0107   47.2635   54.0929 C   0  0  0  0  0  0  0  0  0  0  0  0
    6.6591   46.0077   53.4188 N   0  0  0  0  0  0  0  0  0  0  0  0
    7.9108   46.0780   52.9591 C   0  0  0  0  0  0  0  0  0  0  0  0
    8.9599   45.7288   53.8007 C   0  0  0  0  0  0  0  0  0  0  0  0
   10.2920   45.7882   53.3840 C   0  0  0  0  0  0  0  0  0  0  0  0
   10.5934   46.2118   52.0971 C   0  0  0  0  0  0  0  0  0  0  0  0
    9.5587   46.5643   51.2349 C   0  0  0  0  0  0  0  0  0  0  0  0
    8.2117   46.4909   51.6630 C   0  0  0  0  0  0  0  0  0  0  0  0
    7.4587   48.2309   49.5791 H   0  0  0  0  0  0  0  0  0  0  0  0
    6.3831   47.0642   49.0250 H   0  0  0  0  0  0  0  0  0  0  0  0
    4.1820   44.2557   52.4786 H   0  0  0  0  0  0  0  0  0  0  0  0
    4.2619   44.5212   54.2550 H   0  0  0  0  0  0  0  0  0  0  0  0
    1.9297   44.5608   52.4076 H   0  0  0  0  0  0  0  0  0  0  0  0
    2.0377   44.2404   54.2059 H   0  0  0  0  0  0  0  0  0  0  0  0
    1.6661   46.9177   52.7809 H   0  0  0  0  0  0  0  0  0  0  0  0
    0.0179   46.9510   54.8329 H   0  0  0  0  0  0  0  0  0  0  0  0
   -0.3745   46.1114   53.2619 H   0  0  0  0  0  0  0  0  0  0  0  0
    0.7408   44.1584   54.5468 H   0  0  0  0  0  0  0  0  0  0  0  0
   -1.3442   44.0939   53.4229 H   0  0  0  0  0  0  0  0  0  0  0  0
   -1.4243   43.2708   55.0504 H   0  0  0  0  0  0  0  0  0  0  0  0
   -2.4283   46.0456   54.3502 H   0  0  0  0  0  0  0  0  0  0  0  0
   -3.3914   44.4985   54.7241 H   0  0  0  0  0  0  0  0  0  0  0  0
   -2.0482   46.4183   56.5628 H   0  0  0  0  0  0  0  0  0  0  0  0
   -3.6975   45.6056   56.6027 H   0  0  0  0  0  0  0  0  0  0  0  0
   -2.2425   44.8441   58.4017 H   0  0  0  0  0  0  0  0  0  0  0  0
   -2.6983   43.5363   57.1764 H   0  0  0  0  0  0  0  0  0  0  0  0
   -0.1945   43.9673   58.2387 H   0  0  0  0  0  0  0  0  0  0  0  0
   -0.6519   43.0604   56.6999 H   0  0  0  0  0  0  0  0  0  0  0  0
   -0.0046   45.9875   56.6728 H   0  0  0  0  0  0  0  0  0  0  0  0
    1.2744   44.6762   56.5963 H   0  0  0  0  0  0  0  0  0  0  0  0
    2.1601   47.9876   54.9390 H   0  0  0  0  0  0  0  0  0  0  0  0
    2.7215   46.3927   55.5809 H   0  0  0  0  0  0  0  0  0  0  0  0
    4.0348   48.2600   53.6276 H   0  0  0  0  0  0  0  0  0  0  0  0
    4.7501   47.1979   54.9047 H   0  0  0  0  0  0  0  0  0  0  0  0
    8.7350   45.3960   54.8248 H   0  0  0  0  0  0  0  0  0  0  0  0
   11.0993   45.5002   54.0734 H   0  0  0  0  0  0  0  0  0  0  0  0
   11.6395   46.2684   51.7617 H   0  0  0  0  0  0  0  0  0  0  0  0
    9.7897   46.9021   50.2138 H   0  0  0  0  0  0  0  0  0  0  0  0
  1  2  1  0
  2  3  2  0
  3  4  1  0
  4  5  1  0
  5  6  1  0
  6  7  1  0
  7  8  1  0
  8  9  1  0
  9 10  1  0
 10 11  1  0
 11 12  1  0
 12 13  1  0
 13 14  1  0
 14 15  1  0
 15 16  1  0
  8 17  1  0
 17 18  1  0
  4 19  2  0
 19 20  1  0
 20 21  2  0
 21 22  1  0
 22 23  2  0
 23 24  1  0
 24 25  2  0
 25  2  1  0
 18  5  1  0
 25 20  1  0
 16 10  1  0
  1 26  1  0
  1 27  1  0
  6 28  1  0
  6 29  1  0
  7 30  1  0
  7 31  1  0
  8 32  1  0
  9 33  1  0
  9 34  1  0
 10 35  1  0
 11 36  1  0
 11 37  1  0
 12 38  1  0
 12 39  1  0
 13 40  1  0
 13 41  1  0
 14 42  1  0
 14 43  1  0
 15 44  1  0
 15 45  1  0
 16 46  1  0
 16 47  1  0
 17 48  1  0
 17 49  1  0
 18 50  1  0
 18 51  1  0
 21 52  1  0
 22 53  1  0
 23 54  1  0
 24 55  1  0
M  CHG  1  10   1
M  END
>  <meeko>  (171) 
{"is_sidechain": false}

>  <CID>  (171) 
Z1546707089

>  <pose_index>  (171) 
6

>  <docking_score>  (171) 
-6.166

>  <rmsd_to_best_selected>  (171) 
1.6466323406762997

>  <MWT>  (171) 
340.4949999999995

>  <TPSA>  (171) 
59.48

>  <logP>  (171) 
1.8873

>  <HBD>  (171) 
2

>  <HBA>  (171) 
4

>  <SMILES>  (171) 
[H]c1c([H])c([H])c2c(N([H])[H])nc(N3C([H])([H])C([H])([H])C([H])(C([H])([H])[N+]4([H])C([H])([H])C([H])([H])C([H])([H])C([H])([H])C([H])([H])C4([H])[H])C([H])([H])C3([H])[H])nc2c1[H]

$$$$
Z1546707089_pose7
     RDKit          3D

 55 58  0  0  0  0  0  0  0  0999 V2000
    7.2581   44.9348   49.8695 N   0  0  0  0  0  0  0  0  0  0  0  0
    7.0999   45.4846   51.1482 C   0  0  0  0  0  0  0  0  0  0  0  0
    5.8335   45.6995   51.5215 N   0  0  0  0  0  0  0  0  0  0  0  0
    5.6155   46.2375   52.7308 C   0  0  0  0  0  0  0  0  0  0  0  0
    4.2931   46.4389   53.1434 N   0  0  0  0  0  0  0  0  0  0  0  0
    4.1370   47.1188   54.4214 C   0  0  0  0  0  0  0  0  0  0  0  0
    2.7232   46.8732   54.9684 C   0  0  0  0  0  0  0  0  0  0  0  0
    1.7073   46.4308   53.8944 C   0  0  0  0  0  0  0  0  0  0  0  0
    0.2830   46.6352   54.4234 C   0  0  0  0  0  0  0  0  0  0  0  0
   -0.0686   45.7006   55.5758 N   0  0  0  0  0  4  0  0  0  0  0  0
    0.1304   44.2585   55.1624 C   0  0  0  0  0  0  0  0  0  0  0  0
   -0.1222   43.2592   56.2991 C   0  0  0  0  0  0  0  0  0  0  0  0
   -1.5221   43.2170   56.9093 C   0  0  0  0  0  0  0  0  0  0  0  0
   -2.6434   43.6967   55.9886 C   0  0  0  0  0  0  0  0  0  0  0  0
   -2.5627   45.1603   55.5281 C   0  0  0  0  0  0  0  0  0  0  0  0
   -1.4446   45.9894   56.1440 C   0  0  0  0  0  0  0  0  0  0  0  0
    2.0022   47.1820   52.5911 C   0  0  0  0  0  0  0  0  0  0  0  0
    3.3982   46.8350   52.0564 C   0  0  0  0  0  0  0  0  0  0  0  0
    6.6093   46.5517   53.5734 N   0  0  0  0  0  0  0  0  0  0  0  0
    7.8708   46.3423   53.1917 C   0  0  0  0  0  0  0  0  0  0  0  0
    8.9041   46.6738   54.0586 C   0  0  0  0  0  0  0  0  0  0  0  0
   10.2445   46.4870   53.7167 C   0  0  0  0  0  0  0  0  0  0  0  0
   10.5729   45.9605   52.4741 C   0  0  0  0  0  0  0  0  0  0  0  0
    9.5538   45.6179   51.5886 C   0  0  0  0  0  0  0  0  0  0  0  0
    8.1978   45.8019   51.9492 C   0  0  0  0  0  0  0  0  0  0  0  0
    7.0936   45.6754   49.1939 H   0  0  0  0  0  0  0  0  0  0  0  0
    6.6299   44.1497   49.7256 H   0  0  0  0  0  0  0  0  0  0  0  0
    4.8780   46.7300   55.1354 H   0  0  0  0  0  0  0  0  0  0  0  0
    4.2911   48.1988   54.2809 H   0  0  0  0  0  0  0  0  0  0  0  0
    2.7801   46.0877   55.7363 H   0  0  0  0  0  0  0  0  0  0  0  0
    2.3652   47.8318   55.3720 H   0  0  0  0  0  0  0  0  0  0  0  0
    1.7998   45.3580   53.6695 H   0  0  0  0  0  0  0  0  0  0  0  0
    0.1854   47.6736   54.7730 H   0  0  0  0  0  0  0  0  0  0  0  0
   -0.4082   46.4111   53.5976 H   0  0  0  0  0  0  0  0  0  0  0  0
    0.6185   45.8970   56.3113 H   0  0  0  0  0  0  0  0  0  0  0  0
   -0.5631   44.0328   54.3389 H   0  0  0  0  0  0  0  0  0  0  0  0
    1.1827   44.1489   54.8611 H   0  0  0  0  0  0  0  0  0  0  0  0
    0.0961   42.2545   55.9079 H   0  0  0  0  0  0  0  0  0  0  0  0
    0.5280   43.5997   57.1183 H   0  0  0  0  0  0  0  0  0  0  0  0
   -1.7379   42.1773   57.1964 H   0  0  0  0  0  0  0  0  0  0  0  0
   -1.5065   43.9117   57.7620 H   0  0  0  0  0  0  0  0  0  0  0  0
   -2.6355   43.0613   55.0907 H   0  0  0  0  0  0  0  0  0  0  0  0
   -3.5650   43.6259   56.5850 H   0  0  0  0  0  0  0  0  0  0  0  0
   -2.4229   45.1632   54.4370 H   0  0  0  0  0  0  0  0  0  0  0  0
   -3.5001   45.6297   55.8612 H   0  0  0  0  0  0  0  0  0  0  0  0
   -1.6709   47.0526   55.9753 H   0  0  0  0  0  0  0  0  0  0  0  0
   -1.4070   45.7247   57.2110 H   0  0  0  0  0  0  0  0  0  0  0  0
    1.2499   46.9040   51.8382 H   0  0  0  0  0  0  0  0  0  0  0  0
    1.9648   48.2624   52.7946 H   0  0  0  0  0  0  0  0  0  0  0  0
    3.3128   46.0044   51.3403 H   0  0  0  0  0  0  0  0  0  0  0  0
    3.8166   47.7261   51.5656 H   0  0  0  0  0  0  0  0  0  0  0  0
    8.6588   47.0962   55.0442 H   0  0  0  0  0  0  0  0  0  0  0  0
   11.0383   46.7560   54.4292 H   0  0  0  0  0  0  0  0  0  0  0  0
   11.6263   45.8157   52.1924 H   0  0  0  0  0  0  0  0  0  0  0  0
    9.8048   45.2012   50.6020 H   0  0  0  0  0  0  0  0  0  0  0  0
  1  2  1  0
  2  3  2  0
  3  4  1  0
  4  5  1  0
  5  6  1  0
  6  7  1  0
  7  8  1  0
  8  9  1  0
  9 10  1  0
 10 11  1  0
 11 12  1  0
 12 13  1  0
 13 14  1  0
 14 15  1  0
 15 16  1  0
  8 17  1  0
 17 18  1  0
  4 19  2  0
 19 20  1  0
 20 21  2  0
 21 22  1  0
 22 23  2  0
 23 24  1  0
 24 25  2  0
 25  2  1  0
 18  5  1  0
 25 20  1  0
 16 10  1  0
  1 26  1  0
  1 27  1  0
  6 28  1  0
  6 29  1  0
  7 30  1  0
  7 31  1  0
  8 32  1  0
  9 33  1  0
  9 34  1  0
 10 35  1  0
 11 36  1  0
 11 37  1  0
 12 38  1  0
 12 39  1  0
 13 40  1  0
 13 41  1  0
 14 42  1  0
 14 43  1  0
 15 44  1  0
 15 45  1  0
 16 46  1  0
 16 47  1  0
 17 48  1  0
 17 49  1  0
 18 50  1  0
 18 51  1  0
 21 52  1  0
 22 53  1  0
 23 54  1  0
 24 55  1  0
M  CHG  1  10   1
M  END
>  <meeko>  (172) 
{"is_sidechain": false}

>  <CID>  (172) 
Z1546707089

>  <pose_index>  (172) 
7

>  <docking_score>  (172) 
-6.122

>  <rmsd_to_best_selected>  (172) 
1.586545156510893

>  <MWT>  (172) 
340.4949999999995

>  <TPSA>  (172) 
59.48

>  <logP>  (172) 
1.8873

>  <HBD>  (172) 
2

>  <HBA>  (172) 
4

>  <SMILES>  (172) 
[H]c1c([H])c([H])c2c(N([H])[H])nc(N3C([H])([H])C([H])([H])C([H])(C([H])([H])[N+]4([H])C([H])([H])C([H])([H])C([H])([H])C([H])([H])C([H])([H])C4([H])[H])C([H])([H])C3([H])[H])nc2c1[H]

$$$$
Z1570962597_pose1
     RDKit          3D

 41 44  0  0  0  0  0  0  0  0999 V2000
    1.3690   43.8660   54.0750 C   0  0  0  0  0  0  0  0  0  0  0  0
    1.3010   42.8410   53.1680 C   0  0  0  0  0  0  0  0  0  0  0  0
    2.2490   42.6040   52.2430 N   0  0  0  0  0  0  0  0  0  0  0  0
    3.3140   43.4230   52.2030 C   0  0  0  0  0  0  0  0  0  0  0  0
    4.3160   43.1930   51.2650 N   0  0  0  0  0  0  0  0  0  0  0  0
    4.4890   41.7910   50.8900 C   0  0  0  0  0  0  0  0  0  0  0  0
    5.8460   41.5570   50.2220 C   0  0  0  0  0  0  0  0  0  0  0  0
    6.2060   42.6950   49.2770 C   0  0  0  0  0  0  0  0  0  0  0  0
    6.2120   44.0700   49.9840 C   0  0  0  0  0  0  0  0  0  0  0  0
    7.6450   44.6180   50.0970 C   0  0  0  0  0  0  0  0  0  0  0  0
    7.6700   46.0370   50.4370 N   0  0  0  0  0  0  0  0  0  0  0  0
    8.2050   46.4220   51.6550 C   0  0  0  0  0  0  0  0  0  0  0  0
    9.5350   46.5820   51.8250 N   0  0  0  0  0  0  0  0  0  0  0  0
   10.0040   46.9460   53.0370 C   0  0  0  0  0  0  0  0  0  0  0  0
    9.3100   47.1890   54.1540 N   0  0  0  0  0  0  0  0  0  0  0  0
    7.9870   47.0390   53.9730 C   0  0  0  0  0  0  0  0  0  0  0  0
    7.0300   47.2310   54.9350 N   0  0  0  0  0  0  0  0  0  0  0  0
    5.8890   46.9920   54.3290 C   0  0  0  0  0  0  0  0  0  0  0  0
    6.0730   46.6520   53.0180 N   0  0  0  0  0  0  0  0  0  0  0  0
    7.4190   46.6690   52.7680 C   0  0  0  0  0  0  0  0  0  0  0  0
    5.5130   44.0230   51.3580 C   0  0  0  0  0  0  0  0  0  0  0  0
    3.4590   44.4490   53.0640 N   0  0  0  0  0  0  0  0  0  0  0  0
    2.4880   44.6490   53.9760 C   0  0  0  0  0  0  0  0  0  0  0  0
    0.5848   44.0460   54.8251 H   0  0  0  0  0  0  0  0  0  0  0  0
    0.4248   42.1766   53.1977 H   0  0  0  0  0  0  0  0  0  0  0  0
    4.4224   41.1676   51.7938 H   0  0  0  0  0  0  0  0  0  0  0  0
    3.6986   41.5234   50.1733 H   0  0  0  0  0  0  0  0  0  0  0  0
    6.6193   41.4807   51.0006 H   0  0  0  0  0  0  0  0  0  0  0  0
    5.7869   40.6276   49.6365 H   0  0  0  0  0  0  0  0  0  0  0  0
    7.2075   42.5066   48.8628 H   0  0  0  0  0  0  0  0  0  0  0  0
    5.4420   42.7282   48.4863 H   0  0  0  0  0  0  0  0  0  0  0  0
    5.6285   44.7632   49.3603 H   0  0  0  0  0  0  0  0  0  0  0  0
    8.1775   44.0573   50.8794 H   0  0  0  0  0  0  0  0  0  0  0  0
    8.1294   44.4982   49.1167 H   0  0  0  0  0  0  0  0  0  0  0  0
    6.8660   46.5660   50.1320 H   0  0  0  0  0  0  0  0  0  0  0  0
   11.0955   47.0569   53.1161 H   0  0  0  0  0  0  0  0  0  0  0  0
    4.9055   47.0575   54.8172 H   0  0  0  0  0  0  0  0  0  0  0  0
    5.3460   46.4410   52.3510 H   0  0  0  0  0  0  0  0  0  0  0  0
    6.1989   43.5955   52.1042 H   0  0  0  0  0  0  0  0  0  0  0  0
    5.2308   45.0419   51.6617 H   0  0  0  0  0  0  0  0  0  0  0  0
    2.6001   45.4871   54.6796 H   0  0  0  0  0  0  0  0  0  0  0  0
  1  2  2  0
  2  3  1  0
  3  4  2  0
  4  5  1  0
  5  6  1  0
  6  7  1  0
  7  8  1  0
  8  9  1  0
  9 10  1  0
 10 11  1  0
 11 12  1  0
 12 13  2  0
 13 14  1  0
 14 15  2  0
 15 16  1  0
 16 17  1  0
 17 18  2  0
 18 19  1  0
 19 20  1  0
  9 21  1  0
  4 22  1  0
 22 23  2  0
 23  1  1  0
 21  5  1  0
 20 12  1  0
 20 16  2  0
  1 24  1  0
  2 25  1  0
  6 26  1  0
  6 27  1  0
  7 28  1  0
  7 29  1  0
  8 30  1  0
  8 31  1  0
  9 32  1  0
 10 33  1  0
 10 34  1  0
 11 35  1  0
 14 36  1  0
 18 37  1  0
 19 38  1  0
 21 39  1  0
 21 40  1  0
 23 41  1  0
M  END
>  <meeko>  (173) 
{"is_sidechain": false}

>  <CID>  (173) 
Z1570962597

>  <pose_index>  (173) 
1

>  <docking_score>  (173) 
-8.557

>  <rmsd_to_best_selected>  (173) 
0.0

>  <MWT>  (173) 
310.36499999999967

>  <TPSA>  (173) 
95.51

>  <logP>  (173) 
1.4714

>  <HBD>  (173) 
2

>  <HBA>  (173) 
7

>  <SMILES>  (173) 
[H]c1nc(N([H])C([H])([H])C2([H])C([H])([H])N(c3nc([H])c([H])c([H])n3)C([H])([H])C([H])([H])C2([H])[H])c2c(n1)nc([H])n2[H]

$$$$
Z1570962597_pose4
     RDKit          3D

 41 44  0  0  0  0  0  0  0  0999 V2000
    1.4797   41.2811   54.3698 C   0  0  0  0  0  0  0  0  0  0  0  0
    2.6948   41.8781   54.5748 C   0  0  0  0  0  0  0  0  0  0  0  0
    3.3940   42.4905   53.6006 N   0  0  0  0  0  0  0  0  0  0  0  0
    2.8750   42.5070   52.3615 C   0  0  0  0  0  0  0  0  0  0  0  0
    3.5711   43.1445   51.3393 N   0  0  0  0  0  0  0  0  0  0  0  0
    3.4372   42.5178   50.0263 C   0  0  0  0  0  0  0  0  0  0  0  0
    4.5392   42.9826   49.0712 C   0  0  0  0  0  0  0  0  0  0  0  0
    4.8215   44.4718   49.2296 C   0  0  0  0  0  0  0  0  0  0  0  0
    5.2039   44.8479   50.6792 C   0  0  0  0  0  0  0  0  0  0  0  0
    6.6869   45.2528   50.7628 C   0  0  0  0  0  0  0  0  0  0  0  0
    6.9108   46.3410   51.7085 N   0  0  0  0  0  0  0  0  0  0  0  0
    8.1885   46.8599   51.8391 C   0  0  0  0  0  0  0  0  0  0  0  0
    8.8512   47.3809   50.7845 N   0  0  0  0  0  0  0  0  0  0  0  0
   10.0994   47.8614   50.9644 C   0  0  0  0  0  0  0  0  0  0  0  0
   10.8142   47.9053   52.0935 N   0  0  0  0  0  0  0  0  0  0  0  0
   10.1425   47.3967   53.1401 C   0  0  0  0  0  0  0  0  0  0  0  0
   10.6186   47.3178   54.4229 N   0  0  0  0  0  0  0  0  0  0  0  0
    9.6423   46.7722   55.1128 C   0  0  0  0  0  0  0  0  0  0  0  0
    8.5596   46.4949   54.3258 N   0  0  0  0  0  0  0  0  0  0  0  0
    8.8625   46.8819   53.0479 C   0  0  0  0  0  0  0  0  0  0  0  0
    4.8646   43.7280   51.6839 C   0  0  0  0  0  0  0  0  0  0  0  0
    1.6830   41.9476   52.0797 N   0  0  0  0  0  0  0  0  0  0  0  0
    1.0143   41.3477   53.0833 C   0  0  0  0  0  0  0  0  0  0  0  0
    0.9199   40.7858   55.1769 H   0  0  0  0  0  0  0  0  0  0  0  0
    3.1221   41.8562   55.5882 H   0  0  0  0  0  0  0  0  0  0  0  0
    3.5013   41.4258   50.1427 H   0  0  0  0  0  0  0  0  0  0  0  0
    2.4651   42.8083   49.6013 H   0  0  0  0  0  0  0  0  0  0  0  0
    5.4594   42.4193   49.2854 H   0  0  0  0  0  0  0  0  0  0  0  0
    4.2019   42.8022   48.0398 H   0  0  0  0  0  0  0  0  0  0  0  0
    5.6517   44.7469   48.5625 H   0  0  0  0  0  0  0  0  0  0  0  0
    3.9010   45.0168   48.9732 H   0  0  0  0  0  0  0  0  0  0  0  0
    4.5935   45.7173   50.9649 H   0  0  0  0  0  0  0  0  0  0  0  0
    7.2745   44.3796   51.0825 H   0  0  0  0  0  0  0  0  0  0  0  0
    6.9970   45.6028   49.7671 H   0  0  0  0  0  0  0  0  0  0  0  0
    6.3784   46.2822   52.5662 H   0  0  0  0  0  0  0  0  0  0  0  0
   10.5910   48.2686   50.0685 H   0  0  0  0  0  0  0  0  0  0  0  0
    9.6904   46.5640   56.1918 H   0  0  0  0  0  0  0  0  0  0  0  0
    7.6878   46.0916   54.6344 H   0  0  0  0  0  0  0  0  0  0  0  0
    5.6412   42.9500   51.6426 H   0  0  0  0  0  0  0  0  0  0  0  0
    4.8206   44.1463   52.7003 H   0  0  0  0  0  0  0  0  0  0  0  0
    0.0418   40.8861   52.8574 H   0  0  0  0  0  0  0  0  0  0  0  0
  1  2  2  0
  2  3  1  0
  3  4  2  0
  4  5  1  0
  5  6  1  0
  6  7  1  0
  7  8  1  0
  8  9  1  0
  9 10  1  0
 10 11  1  0
 11 12  1  0
 12 13  2  0
 13 14  1  0
 14 15  2  0
 15 16  1  0
 16 17  1  0
 17 18  2  0
 18 19  1  0
 19 20  1  0
  9 21  1  0
  4 22  1  0
 22 23  2  0
 23  1  1  0
 21  5  1  0
 20 12  1  0
 20 16  2  0
  1 24  1  0
  2 25  1  0
  6 26  1  0
  6 27  1  0
  7 28  1  0
  7 29  1  0
  8 30  1  0
  8 31  1  0
  9 32  1  0
 10 33  1  0
 10 34  1  0
 11 35  1  0
 14 36  1  0
 18 37  1  0
 19 38  1  0
 21 39  1  0
 21 40  1  0
 23 41  1  0
M  END
>  <meeko>  (174) 
{"is_sidechain": false}

>  <CID>  (174) 
Z1570962597

>  <pose_index>  (174) 
4

>  <docking_score>  (174) 
-8.235

>  <rmsd_to_best_selected>  (174) 
1.5074913814391817

>  <MWT>  (174) 
310.36499999999967

>  <TPSA>  (174) 
95.51

>  <logP>  (174) 
1.4714

>  <HBD>  (174) 
2

>  <HBA>  (174) 
7

>  <SMILES>  (174) 
[H]c1nc(N([H])C([H])([H])C2([H])C([H])([H])N(c3nc([H])c([H])c([H])n3)C([H])([H])C([H])([H])C2([H])[H])c2c(n1)nc([H])n2[H]

$$$$
Z1570962597_pose5
     RDKit          3D

 41 44  0  0  0  0  0  0  0  0999 V2000
    2.0104   41.6375   54.5511 C   0  0  0  0  0  0  0  0  0  0  0  0
    1.6193   41.5841   53.2395 C   0  0  0  0  0  0  0  0  0  0  0  0
    2.3059   42.1597   52.2353 N   0  0  0  0  0  0  0  0  0  0  0  0
    3.4301   42.8300   52.5398 C   0  0  0  0  0  0  0  0  0  0  0  0
    4.1668   43.4240   51.5188 N   0  0  0  0  0  0  0  0  0  0  0  0
    5.2107   42.5757   50.9482 C   0  0  0  0  0  0  0  0  0  0  0  0
    6.2390   43.4035   50.1720 C   0  0  0  0  0  0  0  0  0  0  0  0
    5.5692   44.5104   49.3678 C   0  0  0  0  0  0  0  0  0  0  0  0
    4.7163   45.4485   50.2530 C   0  0  0  0  0  0  0  0  0  0  0  0
    5.3608   46.8418   50.3490 C   0  0  0  0  0  0  0  0  0  0  0  0
    6.0852   47.0317   51.6019 N   0  0  0  0  0  0  0  0  0  0  0  0
    7.4372   46.7357   51.6430 C   0  0  0  0  0  0  0  0  0  0  0  0
    8.3061   47.2753   50.7608 N   0  0  0  0  0  0  0  0  0  0  0  0
    9.6120   46.9425   50.8377 C   0  0  0  0  0  0  0  0  0  0  0  0
   10.2066   46.1173   51.7067 N   0  0  0  0  0  0  0  0  0  0  0  0
    9.3374   45.5952   52.5873 C   0  0  0  0  0  0  0  0  0  0  0  0
    9.6594   44.7268   53.5975 N   0  0  0  0  0  0  0  0  0  0  0  0
    8.5231   44.4864   54.2116 C   0  0  0  0  0  0  0  0  0  0  0  0
    7.4830   45.1626   53.6369 N   0  0  0  0  0  0  0  0  0  0  0  0
    7.9835   45.8787   52.5824 C   0  0  0  0  0  0  0  0  0  0  0  0
    4.4460   44.8505   51.6486 C   0  0  0  0  0  0  0  0  0  0  0  0
    3.8855   42.9240   53.8042 N   0  0  0  0  0  0  0  0  0  0  0  0
    3.1700   42.3301   54.7779 C   0  0  0  0  0  0  0  0  0  0  0  0
    1.4374   41.1607   55.3600 H   0  0  0  0  0  0  0  0  0  0  0  0
    0.6944   41.0417   52.9938 H   0  0  0  0  0  0  0  0  0  0  0  0
    5.7222   42.0408   51.7620 H   0  0  0  0  0  0  0  0  0  0  0  0
    4.7393   41.8666   50.2518 H   0  0  0  0  0  0  0  0  0  0  0  0
    6.9452   43.8556   50.8839 H   0  0  0  0  0  0  0  0  0  0  0  0
    6.7632   42.7361   49.4722 H   0  0  0  0  0  0  0  0  0  0  0  0
    6.3483   45.1063   48.8699 H   0  0  0  0  0  0  0  0  0  0  0  0
    4.8972   44.0352   48.6380 H   0  0  0  0  0  0  0  0  0  0  0  0
    3.7359   45.5577   49.7663 H   0  0  0  0  0  0  0  0  0  0  0  0
    6.0637   46.9649   49.5118 H   0  0  0  0  0  0  0  0  0  0  0  0
    4.5546   47.5891   50.3096 H   0  0  0  0  0  0  0  0  0  0  0  0
    5.5670   46.7989   52.4368 H   0  0  0  0  0  0  0  0  0  0  0  0
   10.2711   47.4092   50.0908 H   0  0  0  0  0  0  0  0  0  0  0  0
    8.4209   43.8218   55.0822 H   0  0  0  0  0  0  0  0  0  0  0  0
    6.5229   45.1486   53.9447 H   0  0  0  0  0  0  0  0  0  0  0  0
    5.3299   44.9948   52.2873 H   0  0  0  0  0  0  0  0  0  0  0  0
    3.5802   45.3545   52.1030 H   0  0  0  0  0  0  0  0  0  0  0  0
    3.5368   42.4053   55.8122 H   0  0  0  0  0  0  0  0  0  0  0  0
  1  2  2  0
  2  3  1  0
  3  4  2  0
  4  5  1  0
  5  6  1  0
  6  7  1  0
  7  8  1  0
  8  9  1  0
  9 10  1  0
 10 11  1  0
 11 12  1  0
 12 13  2  0
 13 14  1  0
 14 15  2  0
 15 16  1  0
 16 17  1  0
 17 18  2  0
 18 19  1  0
 19 20  1  0
  9 21  1  0
  4 22  1  0
 22 23  2  0
 23  1  1  0
 21  5  1  0
 20 12  1  0
 20 16  2  0
  1 24  1  0
  2 25  1  0
  6 26  1  0
  6 27  1  0
  7 28  1  0
  7 29  1  0
  8 30  1  0
  8 31  1  0
  9 32  1  0
 10 33  1  0
 10 34  1  0
 11 35  1  0
 14 36  1  0
 18 37  1  0
 19 38  1  0
 21 39  1  0
 21 40  1  0
 23 41  1  0
M  END
>  <meeko>  (175) 
{"is_sidechain": false}

>  <CID>  (175) 
Z1570962597

>  <pose_index>  (175) 
5

>  <docking_score>  (175) 
-8.206

>  <rmsd_to_best_selected>  (175) 
1.4675225985171545

>  <MWT>  (175) 
310.36499999999967

>  <TPSA>  (175) 
95.51

>  <logP>  (175) 
1.4714

>  <HBD>  (175) 
2

>  <HBA>  (175) 
7

>  <SMILES>  (175) 
[H]c1nc(N([H])C([H])([H])C2([H])C([H])([H])N(c3nc([H])c([H])c([H])n3)C([H])([H])C([H])([H])C2([H])[H])c2c(n1)nc([H])n2[H]

$$$$
Z1570962597_pose6
     RDKit          3D

 41 44  0  0  0  0  0  0  0  0999 V2000
    2.9290   41.8983   54.9653 C   0  0  0  0  0  0  0  0  0  0  0  0
    4.1261   42.5388   54.7811 C   0  0  0  0  0  0  0  0  0  0  0  0
    4.5146   43.0626   53.6037 N   0  0  0  0  0  0  0  0  0  0  0  0
    3.6858   42.9407   52.5523 C   0  0  0  0  0  0  0  0  0  0  0  0
    4.0575   43.4856   51.3267 N   0  0  0  0  0  0  0  0  0  0  0  0
    3.6869   42.6811   50.1636 C   0  0  0  0  0  0  0  0  0  0  0  0
    4.4829   43.0929   48.9238 C   0  0  0  0  0  0  0  0  0  0  0  0
    4.6419   44.6048   48.8405 C   0  0  0  0  0  0  0  0  0  0  0  0
    5.3104   45.1980   50.1021 C   0  0  0  0  0  0  0  0  0  0  0  0
    6.7231   45.7150   49.7763 C   0  0  0  0  0  0  0  0  0  0  0  0
    7.7071   45.3000   50.7703 N   0  0  0  0  0  0  0  0  0  0  0  0
    8.1033   46.2081   51.7389 C   0  0  0  0  0  0  0  0  0  0  0  0
    8.6389   47.4032   51.4087 N   0  0  0  0  0  0  0  0  0  0  0  0
    9.0205   48.2457   52.3929 C   0  0  0  0  0  0  0  0  0  0  0  0
    8.9386   48.0656   53.7155 N   0  0  0  0  0  0  0  0  0  0  0  0
    8.3941   46.8796   54.0328 C   0  0  0  0  0  0  0  0  0  0  0  0
    8.1763   46.4248   55.3074 N   0  0  0  0  0  0  0  0  0  0  0  0
    7.6225   45.2431   55.1547 C   0  0  0  0  0  0  0  0  0  0  0  0
    7.4779   44.9181   53.8348 N   0  0  0  0  0  0  0  0  0  0  0  0
    7.9757   45.9548   53.0929 C   0  0  0  0  0  0  0  0  0  0  0  0
    5.3288   44.2004   51.2782 C   0  0  0  0  0  0  0  0  0  0  0  0
    2.4900   42.3309   52.6523 N   0  0  0  0  0  0  0  0  0  0  0  0
    2.1382   41.8238   53.8498 C   0  0  0  0  0  0  0  0  0  0  0  0
    2.6263   41.4762   55.9350 H   0  0  0  0  0  0  0  0  0  0  0  0
    4.8058   42.6297   55.6412 H   0  0  0  0  0  0  0  0  0  0  0  0
    3.8875   41.6220   50.3824 H   0  0  0  0  0  0  0  0  0  0  0  0
    2.6182   42.8415   49.9580 H   0  0  0  0  0  0  0  0  0  0  0  0
    5.4800   42.6305   48.9692 H   0  0  0  0  0  0  0  0  0  0  0  0
    3.9346   42.7535   48.0327 H   0  0  0  0  0  0  0  0  0  0  0  0
    5.2622   44.8470   47.9650 H   0  0  0  0  0  0  0  0  0  0  0  0
    3.6366   45.0434   48.7562 H   0  0  0  0  0  0  0  0  0  0  0  0
    4.6988   46.0522   50.4281 H   0  0  0  0  0  0  0  0  0  0  0  0
    7.0255   45.3230   48.7940 H   0  0  0  0  0  0  0  0  0  0  0  0
    6.6876   46.8144   49.7763 H   0  0  0  0  0  0  0  0  0  0  0  0
    8.4367   44.6913   50.4248 H   0  0  0  0  0  0  0  0  0  0  0  0
    9.4539   49.2019   52.0647 H   0  0  0  0  0  0  0  0  0  0  0  0
    7.3130   44.5944   55.9874 H   0  0  0  0  0  0  0  0  0  0  0  0
    7.0653   44.0719   53.4733 H   0  0  0  0  0  0  0  0  0  0  0  0
    6.1491   43.4813   51.1369 H   0  0  0  0  0  0  0  0  0  0  0  0
    5.4797   44.7464   52.2211 H   0  0  0  0  0  0  0  0  0  0  0  0
    1.1627   41.3227   53.9362 H   0  0  0  0  0  0  0  0  0  0  0  0
  1  2  2  0
  2  3  1  0
  3  4  2  0
  4  5  1  0
  5  6  1  0
  6  7  1  0
  7  8  1  0
  8  9  1  0
  9 10  1  0
 10 11  1  0
 11 12  1  0
 12 13  2  0
 13 14  1  0
 14 15  2  0
 15 16  1  0
 16 17  1  0
 17 18  2  0
 18 19  1  0
 19 20  1  0
  9 21  1  0
  4 22  1  0
 22 23  2  0
 23  1  1  0
 21  5  1  0
 20 12  1  0
 20 16  2  0
  1 24  1  0
  2 25  1  0
  6 26  1  0
  6 27  1  0
  7 28  1  0
  7 29  1  0
  8 30  1  0
  8 31  1  0
  9 32  1  0
 10 33  1  0
 10 34  1  0
 11 35  1  0
 14 36  1  0
 18 37  1  0
 19 38  1  0
 21 39  1  0
 21 40  1  0
 23 41  1  0
M  END
>  <meeko>  (176) 
{"is_sidechain": false}

>  <CID>  (176) 
Z1570962597

>  <pose_index>  (176) 
6

>  <docking_score>  (176) 
-8.197

>  <rmsd_to_best_selected>  (176) 
1.0732499411127554

>  <MWT>  (176) 
310.36499999999967

>  <TPSA>  (176) 
95.51

>  <logP>  (176) 
1.4714

>  <HBD>  (176) 
2

>  <HBA>  (176) 
7

>  <SMILES>  (176) 
[H]c1nc(N([H])C([H])([H])C2([H])C([H])([H])N(c3nc([H])c([H])c([H])n3)C([H])([H])C([H])([H])C2([H])[H])c2c(n1)nc([H])n2[H]

$$$$
Z1570962597_pose10
     RDKit          3D

 41 44  0  0  0  0  0  0  0  0999 V2000
    2.6399   41.8822   54.6947 C   0  0  0  0  0  0  0  0  0  0  0  0
    3.7093   42.7375   54.6822 C   0  0  0  0  0  0  0  0  0  0  0  0
    4.2139   43.2783   53.5573 N   0  0  0  0  0  0  0  0  0  0  0  0
    3.6433   42.9512   52.3860 C   0  0  0  0  0  0  0  0  0  0  0  0
    4.1377   43.5070   51.2090 N   0  0  0  0  0  0  0  0  0  0  0  0
    3.7610   42.7911   49.9923 C   0  0  0  0  0  0  0  0  0  0  0  0
    4.6657   43.1724   48.8180 C   0  0  0  0  0  0  0  0  0  0  0  0
    4.9733   44.6646   48.8147 C   0  0  0  0  0  0  0  0  0  0  0  0
    5.6200   45.1365   50.1376 C   0  0  0  0  0  0  0  0  0  0  0  0
    7.0918   45.5256   49.9151 C   0  0  0  0  0  0  0  0  0  0  0  0
    7.5107   46.6257   50.7769 N   0  0  0  0  0  0  0  0  0  0  0  0
    8.2524   46.3425   51.9103 C   0  0  0  0  0  0  0  0  0  0  0  0
    9.5628   46.0251   51.8355 N   0  0  0  0  0  0  0  0  0  0  0  0
   10.2375   45.7439   52.9720 C   0  0  0  0  0  0  0  0  0  0  0  0
    9.7767   45.7372   54.2268 N   0  0  0  0  0  0  0  0  0  0  0  0
    8.4760   46.0662   54.2935 C   0  0  0  0  0  0  0  0  0  0  0  0
    7.7387   46.1511   55.4448 N   0  0  0  0  0  0  0  0  0  0  0  0
    6.5369   46.5089   55.0516 C   0  0  0  0  0  0  0  0  0  0  0  0
    6.4708   46.6557   53.6937 N   0  0  0  0  0  0  0  0  0  0  0  0
    7.7075   46.3680   53.1834 C   0  0  0  0  0  0  0  0  0  0  0  0
    5.4725   44.0945   51.2649 C   0  0  0  0  0  0  0  0  0  0  0  0
    2.5853   42.1211   52.3134 N   0  0  0  0  0  0  0  0  0  0  0  0
    2.1086   41.6061   53.4629 C   0  0  0  0  0  0  0  0  0  0  0  0
    2.2384   41.4500   55.6231 H   0  0  0  0  0  0  0  0  0  0  0  0
    4.1809   42.9962   55.6417 H   0  0  0  0  0  0  0  0  0  0  0  0
    3.8455   41.7093   50.1727 H   0  0  0  0  0  0  0  0  0  0  0  0
    2.7268   43.0641   49.7358 H   0  0  0  0  0  0  0  0  0  0  0  0
    5.6093   42.6127   48.8968 H   0  0  0  0  0  0  0  0  0  0  0  0
    4.1418   42.9250   47.8829 H   0  0  0  0  0  0  0  0  0  0  0  0
    5.6646   44.8808   47.9868 H   0  0  0  0  0  0  0  0  0  0  0  0
    4.0214   45.2029   48.6962 H   0  0  0  0  0  0  0  0  0  0  0  0
    5.0749   46.0326   50.4690 H   0  0  0  0  0  0  0  0  0  0  0  0
    7.7246   44.6507   50.1256 H   0  0  0  0  0  0  0  0  0  0  0  0
    7.1980   45.8568   48.8716 H   0  0  0  0  0  0  0  0  0  0  0  0
    6.8361   47.3728   50.8773 H   0  0  0  0  0  0  0  0  0  0  0  0
   11.3002   45.4881   52.8490 H   0  0  0  0  0  0  0  0  0  0  0  0
    5.6877   46.6707   55.7319 H   0  0  0  0  0  0  0  0  0  0  0  0
    5.6598   46.9399   53.1658 H   0  0  0  0  0  0  0  0  0  0  0  0
    6.2271   43.3046   51.1358 H   0  0  0  0  0  0  0  0  0  0  0  0
    5.6187   44.5836   52.2393 H   0  0  0  0  0  0  0  0  0  0  0  0
    1.2452   40.9266   53.4095 H   0  0  0  0  0  0  0  0  0  0  0  0
  1  2  2  0
  2  3  1  0
  3  4  2  0
  4  5  1  0
  5  6  1  0
  6  7  1  0
  7  8  1  0
  8  9  1  0
  9 10  1  0
 10 11  1  0
 11 12  1  0
 12 13  2  0
 13 14  1  0
 14 15  2  0
 15 16  1  0
 16 17  1  0
 17 18  2  0
 18 19  1  0
 19 20  1  0
  9 21  1  0
  4 22  1  0
 22 23  2  0
 23  1  1  0
 21  5  1  0
 20 12  1  0
 20 16  2  0
  1 24  1  0
  2 25  1  0
  6 26  1  0
  6 27  1  0
  7 28  1  0
  7 29  1  0
  8 30  1  0
  8 31  1  0
  9 32  1  0
 10 33  1  0
 10 34  1  0
 11 35  1  0
 14 36  1  0
 18 37  1  0
 19 38  1  0
 21 39  1  0
 21 40  1  0
 23 41  1  0
M  END
>  <meeko>  (177) 
{"is_sidechain": false}

>  <CID>  (177) 
Z1570962597

>  <pose_index>  (177) 
10

>  <docking_score>  (177) 
-8.036

>  <rmsd_to_best_selected>  (177) 
0.63588023445696

>  <MWT>  (177) 
310.36499999999967

>  <TPSA>  (177) 
95.51

>  <logP>  (177) 
1.4714

>  <HBD>  (177) 
2

>  <HBA>  (177) 
7

>  <SMILES>  (177) 
[H]c1nc(N([H])C([H])([H])C2([H])C([H])([H])N(c3nc([H])c([H])c([H])n3)C([H])([H])C([H])([H])C2([H])[H])c2c(n1)nc([H])n2[H]

$$$$
Z1576583090_pose1
     RDKit          3D

 43 46  0  0  0  0  0  0  0  0999 V2000
   -0.7780   43.6370   52.8620 C   0  0  0  0  0  0  0  0  0  0  0  0
    0.2890   44.1920   53.6560 N   0  0  0  0  0  0  0  0  0  0  0  0
   -0.0120   44.9370   54.7500 N   0  0  0  0  0  0  0  0  0  0  0  0
    1.1870   45.2810   55.2400 C   0  0  0  0  0  0  0  0  0  0  0  0
    2.2320   44.7670   54.4660 C   0  0  0  0  0  0  0  0  0  0  0  0
    3.6590   44.8190   54.5200 C   0  0  0  0  0  0  0  0  0  0  0  0
    4.3030   45.4060   55.3810 O   0  0  0  0  0  0  0  0  0  0  0  0
    4.2460   44.1280   53.4780 N   0  0  0  0  0  0  0  0  0  0  0  0
    3.5530   43.4570   52.4780 C   0  0  0  0  0  0  0  0  0  0  0  0
    4.2810   42.8030   51.5200 N   0  0  0  0  0  0  0  0  0  0  0  0
    5.4090   43.3040   50.8300 C   0  0  0  0  0  0  0  0  0  0  0  0
    5.8820   42.5810   49.7270 C   0  0  0  0  0  0  0  0  0  0  0  0
    6.9970   43.0160   49.0130 C   0  0  0  0  0  0  0  0  0  0  0  0
    7.6520   44.1840   49.4000 C   0  0  0  0  0  0  0  0  0  0  0  0
    7.1980   44.9260   50.4920 C   0  0  0  0  0  0  0  0  0  0  0  0
    7.9280   46.0510   50.7510 O   0  0  0  0  0  0  0  0  0  0  0  0
    8.2090   46.3940   52.1010 C   0  0  0  0  0  0  0  0  0  0  0  0
    9.7110   46.2600   52.3460 C   0  0  0  0  0  0  0  0  0  0  0  0
    9.9630   47.1060   53.5870 C   0  0  0  0  0  0  0  0  0  0  0  0
    8.8630   48.1660   53.5990 C   0  0  0  0  0  0  0  0  0  0  0  0
    7.9850   47.8760   52.3880 C   0  0  0  0  0  0  0  0  0  0  0  0
    6.0760   44.4850   51.1980 C   0  0  0  0  0  0  0  0  0  0  0  0
    2.2450   43.3920   52.4420 N   0  0  0  0  0  0  0  0  0  0  0  0
    1.6340   44.0670   53.4470 C   0  0  0  0  0  0  0  0  0  0  0  0
   -1.5564   43.2321   53.5255 H   0  0  0  0  0  0  0  0  0  0  0  0
   -1.2105   44.4244   52.2272 H   0  0  0  0  0  0  0  0  0  0  0  0
   -0.3816   42.8308   52.2272 H   0  0  0  0  0  0  0  0  0  0  0  0
    1.3316   45.8937   56.1421 H   0  0  0  0  0  0  0  0  0  0  0  0
    5.2530   44.0910   53.4800 H   0  0  0  0  0  0  0  0  0  0  0  0
    3.6830   42.2700   50.8940 H   0  0  0  0  0  0  0  0  0  0  0  0
    5.3669   41.6586   49.4208 H   0  0  0  0  0  0  0  0  0  0  0  0
    7.3585   42.4404   48.1481 H   0  0  0  0  0  0  0  0  0  0  0  0
    8.5352   44.5244   48.8396 H   0  0  0  0  0  0  0  0  0  0  0  0
    7.5629   45.7444   52.7097 H   0  0  0  0  0  0  0  0  0  0  0  0
    9.9848   45.2101   52.5272 H   0  0  0  0  0  0  0  0  0  0  0  0
   10.3099   46.5877   51.4835 H   0  0  0  0  0  0  0  0  0  0  0  0
    9.9055   46.4842   54.4926 H   0  0  0  0  0  0  0  0  0  0  0  0
   10.9640   47.5617   53.5697 H   0  0  0  0  0  0  0  0  0  0  0  0
    8.2730   48.0938   54.5246 H   0  0  0  0  0  0  0  0  0  0  0  0
    9.2828   49.1819   53.5575 H   0  0  0  0  0  0  0  0  0  0  0  0
    6.9274   48.0721   52.6184 H   0  0  0  0  0  0  0  0  0  0  0  0
    8.2366   48.5120   51.5265 H   0  0  0  0  0  0  0  0  0  0  0  0
    5.7094   45.0705   52.0541 H   0  0  0  0  0  0  0  0  0  0  0  0
  1  2  1  0
  2  3  1  0
  3  4  2  0
  4  5  1  0
  5  6  1  0
  6  7  2  0
  6  8  1  0
  8  9  1  0
  9 10  1  0
 10 11  1  0
 11 12  2  0
 12 13  1  0
 13 14  2  0
 14 15  1  0
 15 16  1  0
 16 17  1  0
 17 18  1  0
 18 19  1  0
 19 20  1  0
 20 21  1  0
 15 22  2  0
  9 23  2  0
 23 24  1  0
 24  2  1  0
 24  5  2  0
 22 11  1  0
 21 17  1  0
  1 25  1  0
  1 26  1  0
  1 27  1  0
  4 28  1  0
  8 29  1  0
 10 30  1  0
 12 31  1  0
 13 32  1  0
 14 33  1  0
 17 34  1  0
 18 35  1  0
 18 36  1  0
 19 37  1  0
 19 38  1  0
 20 39  1  0
 20 40  1  0
 21 41  1  0
 21 42  1  0
 22 43  1  0
M  END
>  <meeko>  (178) 
{"is_sidechain": false}

>  <CID>  (178) 
Z1576583090

>  <pose_index>  (178) 
1

>  <docking_score>  (178) 
-9.894

>  <rmsd_to_best_selected>  (178) 
0.0

>  <MWT>  (178) 
325.3719999999997

>  <TPSA>  (178) 
84.83

>  <logP>  (178) 
2.7216000000000005

>  <HBD>  (178) 
2

>  <HBA>  (178) 
6

>  <SMILES>  (178) 
[H]c1c([H])c(OC2([H])C([H])([H])C([H])([H])C([H])([H])C2([H])[H])c([H])c(N([H])c2nc3c(c([H])nn3C([H])([H])[H])c(=O)n2[H])c1[H]

$$$$
Z1576583090_pose2
     RDKit          3D

 43 46  0  0  0  0  0  0  0  0999 V2000
   -1.0207   43.2759   52.6182 C   0  0  0  0  0  0  0  0  0  0  0  0
   -0.0808   43.9983   53.4371 N   0  0  0  0  0  0  0  0  0  0  0  0
   -0.5425   44.8050   54.4269 N   0  0  0  0  0  0  0  0  0  0  0  0
    0.5724   45.3055   54.9751 C   0  0  0  0  0  0  0  0  0  0  0  0
    1.7231   44.8296   54.3406 C   0  0  0  0  0  0  0  0  0  0  0  0
    3.1298   45.0222   54.5024 C   0  0  0  0  0  0  0  0  0  0  0  0
    3.6402   45.7431   55.3513 O   0  0  0  0  0  0  0  0  0  0  0  0
    3.8660   44.3027   53.5820 N   0  0  0  0  0  0  0  0  0  0  0  0
    3.3267   43.4816   52.5992 C   0  0  0  0  0  0  0  0  0  0  0  0
    4.1918   42.8198   51.7698 N   0  0  0  0  0  0  0  0  0  0  0  0
    5.3266   43.3644   51.1269 C   0  0  0  0  0  0  0  0  0  0  0  0
    5.9262   42.6180   50.1028 C   0  0  0  0  0  0  0  0  0  0  0  0
    7.0552   43.0957   49.4402 C   0  0  0  0  0  0  0  0  0  0  0  0
    7.5967   44.3290   49.7964 C   0  0  0  0  0  0  0  0  0  0  0  0
    7.0152   45.0941   50.8094 C   0  0  0  0  0  0  0  0  0  0  0  0
    7.6442   46.2839   51.0474 O   0  0  0  0  0  0  0  0  0  0  0  0
    8.5390   46.3813   52.1481 C   0  0  0  0  0  0  0  0  0  0  0  0
    9.9464   46.6517   51.6218 C   0  0  0  0  0  0  0  0  0  0  0  0
   10.6869   47.2325   52.8196 C   0  0  0  0  0  0  0  0  0  0  0  0
    9.6179   47.8835   53.6952 C   0  0  0  0  0  0  0  0  0  0  0  0
    8.2876   47.6251   52.9983 C   0  0  0  0  0  0  0  0  0  0  0  0
    5.8804   44.6104   51.4656 C   0  0  0  0  0  0  0  0  0  0  0  0
    2.0375   43.2881   52.4656 N   0  0  0  0  0  0  0  0  0  0  0  0
    1.2825   43.9866   53.3491 C   0  0  0  0  0  0  0  0  0  0  0  0
   -1.7174   42.7202   53.2630 H   0  0  0  0  0  0  0  0  0  0  0  0
   -1.5847   43.9852   51.9946 H   0  0  0  0  0  0  0  0  0  0  0  0
   -0.4777   42.5707   51.9717 H   0  0  0  0  0  0  0  0  0  0  0  0
    0.5813   46.0066   55.8227 H   0  0  0  0  0  0  0  0  0  0  0  0
    4.8691   44.3634   53.6671 H   0  0  0  0  0  0  0  0  0  0  0  0
    3.7014   42.1781   51.1519 H   0  0  0  0  0  0  0  0  0  0  0  0
    5.5006   41.6441   49.8190 H   0  0  0  0  0  0  0  0  0  0  0  0
    7.5174   42.5010   48.6385 H   0  0  0  0  0  0  0  0  0  0  0  0
    8.4901   44.7033   49.2751 H   0  0  0  0  0  0  0  0  0  0  0  0
    8.4098   45.4484   52.7163 H   0  0  0  0  0  0  0  0  0  0  0  0
   10.4222   45.7195   51.2832 H   0  0  0  0  0  0  0  0  0  0  0  0
    9.9496   47.3290   50.7550 H   0  0  0  0  0  0  0  0  0  0  0  0
   11.2028   46.4349   53.3743 H   0  0  0  0  0  0  0  0  0  0  0  0
   11.4525   47.9586   52.5086 H   0  0  0  0  0  0  0  0  0  0  0  0
    9.6180   47.4312   54.6979 H   0  0  0  0  0  0  0  0  0  0  0  0
    9.8029   48.9603   53.8224 H   0  0  0  0  0  0  0  0  0  0  0  0
    7.4921   47.4388   53.7349 H   0  0  0  0  0  0  0  0  0  0  0  0
    7.9558   48.4841   52.3966 H   0  0  0  0  0  0  0  0  0  0  0  0
    5.4141   45.2135   52.2586 H   0  0  0  0  0  0  0  0  0  0  0  0
  1  2  1  0
  2  3  1  0
  3  4  2  0
  4  5  1  0
  5  6  1  0
  6  7  2  0
  6  8  1  0
  8  9  1  0
  9 10  1  0
 10 11  1  0
 11 12  2  0
 12 13  1  0
 13 14  2  0
 14 15  1  0
 15 16  1  0
 16 17  1  0
 17 18  1  0
 18 19  1  0
 19 20  1  0
 20 21  1  0
 15 22  2  0
  9 23  2  0
 23 24  1  0
 24  2  1  0
 24  5  2  0
 22 11  1  0
 21 17  1  0
  1 25  1  0
  1 26  1  0
  1 27  1  0
  4 28  1  0
  8 29  1  0
 10 30  1  0
 12 31  1  0
 13 32  1  0
 14 33  1  0
 17 34  1  0
 18 35  1  0
 18 36  1  0
 19 37  1  0
 19 38  1  0
 20 39  1  0
 20 40  1  0
 21 41  1  0
 21 42  1  0
 22 43  1  0
M  END
>  <meeko>  (179) 
{"is_sidechain": false}

>  <CID>  (179) 
Z1576583090

>  <pose_index>  (179) 
2

>  <docking_score>  (179) 
-9.502

>  <rmsd_to_best_selected>  (179) 
0.7461054100561821

>  <MWT>  (179) 
325.3719999999997

>  <TPSA>  (179) 
84.83

>  <logP>  (179) 
2.7216000000000005

>  <HBD>  (179) 
2

>  <HBA>  (179) 
6

>  <SMILES>  (179) 
[H]c1c([H])c(OC2([H])C([H])([H])C([H])([H])C([H])([H])C2([H])[H])c([H])c(N([H])c2nc3c(c([H])nn3C([H])([H])[H])c(=O)n2[H])c1[H]

$$$$
Z1576583090_pose3
     RDKit          3D

 43 46  0  0  0  0  0  0  0  0999 V2000
   -0.8380   42.4347   52.9717 C   0  0  0  0  0  0  0  0  0  0  0  0
   -0.1448   43.5924   53.4773 N   0  0  0  0  0  0  0  0  0  0  0  0
   -0.8366   44.5336   54.1697 N   0  0  0  0  0  0  0  0  0  0  0  0
    0.0938   45.4443   54.4845 C   0  0  0  0  0  0  0  0  0  0  0  0
    1.3547   45.0905   53.9957 C   0  0  0  0  0  0  0  0  0  0  0  0
    2.6606   45.6683   54.0336 C   0  0  0  0  0  0  0  0  0  0  0  0
    2.9383   46.7277   54.5833 O   0  0  0  0  0  0  0  0  0  0  0  0
    3.5934   44.8976   53.3676 N   0  0  0  0  0  0  0  0  0  0  0  0
    3.3194   43.6965   52.7237 C   0  0  0  0  0  0  0  0  0  0  0  0
    4.3587   43.0391   52.1208 N   0  0  0  0  0  0  0  0  0  0  0  0
    5.3524   43.6121   51.2950 C   0  0  0  0  0  0  0  0  0  0  0  0
    5.5919   43.0206   50.0459 C   0  0  0  0  0  0  0  0  0  0  0  0
    6.5675   43.5311   49.1917 C   0  0  0  0  0  0  0  0  0  0  0  0
    7.3141   44.6421   49.5796 C   0  0  0  0  0  0  0  0  0  0  0  0
    7.0906   45.2526   50.8151 C   0  0  0  0  0  0  0  0  0  0  0  0
    7.8864   46.3355   51.0600 O   0  0  0  0  0  0  0  0  0  0  0  0
    8.7451   46.3177   52.1930 C   0  0  0  0  0  0  0  0  0  0  0  0
   10.1937   46.4067   51.7201 C   0  0  0  0  0  0  0  0  0  0  0  0
   10.9577   46.8869   52.9475 C   0  0  0  0  0  0  0  0  0  0  0  0
    9.9471   47.6671   53.7873 C   0  0  0  0  0  0  0  0  0  0  0  0
    8.6221   47.5809   53.0411 C   0  0  0  0  0  0  0  0  0  0  0  0
    6.1076   44.7369   51.6638 C   0  0  0  0  0  0  0  0  0  0  0  0
    2.1260   43.1563   52.7083 N   0  0  0  0  0  0  0  0  0  0  0  0
    1.1823   43.8922   53.3469 C   0  0  0  0  0  0  0  0  0  0  0  0
   -0.8765   41.6605   53.7522 H   0  0  0  0  0  0  0  0  0  0  0  0
   -1.8616   42.7167   52.6841 H   0  0  0  0  0  0  0  0  0  0  0  0
   -0.3050   42.0430   52.0928 H   0  0  0  0  0  0  0  0  0  0  0  0
   -0.1098   46.3603   55.0586 H   0  0  0  0  0  0  0  0  0  0  0  0
    4.5450   45.2292   53.3906 H   0  0  0  0  0  0  0  0  0  0  0  0
    4.0703   42.1326   51.7635 H   0  0  0  0  0  0  0  0  0  0  0  0
    5.0033   42.1442   49.7371 H   0  0  0  0  0  0  0  0  0  0  0  0
    6.7477   43.0588   48.2148 H   0  0  0  0  0  0  0  0  0  0  0  0
    8.0866   45.0416   48.9062 H   0  0  0  0  0  0  0  0  0  0  0  0
    8.4774   45.4082   52.7509 H   0  0  0  0  0  0  0  0  0  0  0  0
   10.5589   45.4219   51.3936 H   0  0  0  0  0  0  0  0  0  0  0  0
   10.3152   47.0791   50.8580 H   0  0  0  0  0  0  0  0  0  0  0  0
   11.3474   46.0295   53.5159 H   0  0  0  0  0  0  0  0  0  0  0  0
   11.8205   47.5101   52.6696 H   0  0  0  0  0  0  0  0  0  0  0  0
    9.8525   47.2169   54.7865 H   0  0  0  0  0  0  0  0  0  0  0  0
   10.2622   48.7116   53.9275 H   0  0  0  0  0  0  0  0  0  0  0  0
    7.7827   47.4956   53.7469 H   0  0  0  0  0  0  0  0  0  0  0  0
    8.4243   48.4762   52.4333 H   0  0  0  0  0  0  0  0  0  0  0  0
    5.9228   45.2191   52.6351 H   0  0  0  0  0  0  0  0  0  0  0  0
  1  2  1  0
  2  3  1  0
  3  4  2  0
  4  5  1  0
  5  6  1  0
  6  7  2  0
  6  8  1  0
  8  9  1  0
  9 10  1  0
 10 11  1  0
 11 12  2  0
 12 13  1  0
 13 14  2  0
 14 15  1  0
 15 16  1  0
 16 17  1  0
 17 18  1  0
 18 19  1  0
 19 20  1  0
 20 21  1  0
 15 22  2  0
  9 23  2  0
 23 24  1  0
 24  2  1  0
 24  5  2  0
 22 11  1  0
 21 17  1  0
  1 25  1  0
  1 26  1  0
  1 27  1  0
  4 28  1  0
  8 29  1  0
 10 30  1  0
 12 31  1  0
 13 32  1  0
 14 33  1  0
 17 34  1  0
 18 35  1  0
 18 36  1  0
 19 37  1  0
 19 38  1  0
 20 39  1  0
 20 40  1  0
 21 41  1  0
 21 42  1  0
 22 43  1  0
M  END
>  <meeko>  (180) 
{"is_sidechain": false}

>  <CID>  (180) 
Z1576583090

>  <pose_index>  (180) 
3

>  <docking_score>  (180) 
-9.162

>  <rmsd_to_best_selected>  (180) 
1.1046774729490583

>  <MWT>  (180) 
325.3719999999997

>  <TPSA>  (180) 
84.83

>  <logP>  (180) 
2.7216000000000005

>  <HBD>  (180) 
2

>  <HBA>  (180) 
6

>  <SMILES>  (180) 
[H]c1c([H])c(OC2([H])C([H])([H])C([H])([H])C([H])([H])C2([H])[H])c([H])c(N([H])c2nc3c(c([H])nn3C([H])([H])[H])c(=O)n2[H])c1[H]

$$$$
Z1576583090_pose6
     RDKit          3D

 43 46  0  0  0  0  0  0  0  0999 V2000
   -0.8264   42.9175   52.4592 C   0  0  0  0  0  0  0  0  0  0  0  0
   -0.1041   44.0345   53.0146 N   0  0  0  0  0  0  0  0  0  0  0  0
   -0.7952   45.0912   53.5155 N   0  0  0  0  0  0  0  0  0  0  0  0
    0.1650   45.9246   53.9406 C   0  0  0  0  0  0  0  0  0  0  0  0
    1.4426   45.4079   53.7081 C   0  0  0  0  0  0  0  0  0  0  0  0
    2.7794   45.8525   53.9483 C   0  0  0  0  0  0  0  0  0  0  0  0
    3.0749   46.9163   54.4788 O   0  0  0  0  0  0  0  0  0  0  0  0
    3.7195   44.9411   53.5083 N   0  0  0  0  0  0  0  0  0  0  0  0
    3.4267   43.7290   52.8948 C   0  0  0  0  0  0  0  0  0  0  0  0
    4.4737   42.9257   52.5299 N   0  0  0  0  0  0  0  0  0  0  0  0
    5.6545   43.3295   51.8644 C   0  0  0  0  0  0  0  0  0  0  0  0
    5.6203   43.4356   50.4674 C   0  0  0  0  0  0  0  0  0  0  0  0
    6.7545   43.8172   49.7528 C   0  0  0  0  0  0  0  0  0  0  0  0
    7.9379   44.0963   50.4333 C   0  0  0  0  0  0  0  0  0  0  0  0
    7.9971   44.0035   51.8258 C   0  0  0  0  0  0  0  0  0  0  0  0
    9.2153   44.3140   52.3598 O   0  0  0  0  0  0  0  0  0  0  0  0
    9.4377   45.6303   52.8497 C   0  0  0  0  0  0  0  0  0  0  0  0
   10.2889   46.3990   51.8414 C   0  0  0  0  0  0  0  0  0  0  0  0
   10.0396   47.8619   52.1818 C   0  0  0  0  0  0  0  0  0  0  0  0
    8.6542   47.9098   52.8254 C   0  0  0  0  0  0  0  0  0  0  0  0
    8.1622   46.4688   52.8737 C   0  0  0  0  0  0  0  0  0  0  0  0
    6.8530   43.6251   52.5339 C   0  0  0  0  0  0  0  0  0  0  0  0
    2.2011   43.3134   52.6956 N   0  0  0  0  0  0  0  0  0  0  0  0
    1.2505   44.1880   53.1098 C   0  0  0  0  0  0  0  0  0  0  0  0
   -1.7171   43.2844   51.9282 H   0  0  0  0  0  0  0  0  0  0  0  0
   -0.1778   42.3746   51.7559 H   0  0  0  0  0  0  0  0  0  0  0  0
   -1.1355   42.2411   53.2698 H   0  0  0  0  0  0  0  0  0  0  0  0
   -0.0293   46.8978   54.4151 H   0  0  0  0  0  0  0  0  0  0  0  0
    4.6848   45.1758   53.6844 H   0  0  0  0  0  0  0  0  0  0  0  0
    4.1519   42.0274   52.1781 H   0  0  0  0  0  0  0  0  0  0  0  0
    4.6871   43.2151   49.9284 H   0  0  0  0  0  0  0  0  0  0  0  0
    6.7155   43.8978   48.6565 H   0  0  0  0  0  0  0  0  0  0  0  0
    8.8342   44.3925   49.8685 H   0  0  0  0  0  0  0  0  0  0  0  0
    9.8772   45.5018   53.8499 H   0  0  0  0  0  0  0  0  0  0  0  0
   11.3534   46.1473   51.9571 H   0  0  0  0  0  0  0  0  0  0  0  0
   10.0291   46.1582   50.8000 H   0  0  0  0  0  0  0  0  0  0  0  0
   10.8019   48.2266   52.8861 H   0  0  0  0  0  0  0  0  0  0  0  0
   10.0927   48.5003   51.2876 H   0  0  0  0  0  0  0  0  0  0  0  0
    8.7194   48.3254   53.8418 H   0  0  0  0  0  0  0  0  0  0  0  0
    7.9669   48.5507   52.2537 H   0  0  0  0  0  0  0  0  0  0  0  0
    7.5917   46.2832   53.7957 H   0  0  0  0  0  0  0  0  0  0  0  0
    7.4870   46.2285   52.0392 H   0  0  0  0  0  0  0  0  0  0  0  0
    6.8920   43.5579   53.6312 H   0  0  0  0  0  0  0  0  0  0  0  0
  1  2  1  0
  2  3  1  0
  3  4  2  0
  4  5  1  0
  5  6  1  0
  6  7  2  0
  6  8  1  0
  8  9  1  0
  9 10  1  0
 10 11  1  0
 11 12  2  0
 12 13  1  0
 13 14  2  0
 14 15  1  0
 15 16  1  0
 16 17  1  0
 17 18  1  0
 18 19  1  0
 19 20  1  0
 20 21  1  0
 15 22  2  0
  9 23  2  0
 23 24  1  0
 24  2  1  0
 24  5  2  0
 22 11  1  0
 21 17  1  0
  1 25  1  0
  1 26  1  0
  1 27  1  0
  4 28  1  0
  8 29  1  0
 10 30  1  0
 12 31  1  0
 13 32  1  0
 14 33  1  0
 17 34  1  0
 18 35  1  0
 18 36  1  0
 19 37  1  0
 19 38  1  0
 20 39  1  0
 20 40  1  0
 21 41  1  0
 21 42  1  0
 22 43  1  0
M  END
>  <meeko>  (181) 
{"is_sidechain": false}

>  <CID>  (181) 
Z1576583090

>  <pose_index>  (181) 
6

>  <docking_score>  (181) 
-8.732

>  <rmsd_to_best_selected>  (181) 
1.483878385235582

>  <MWT>  (181) 
325.3719999999997

>  <TPSA>  (181) 
84.83

>  <logP>  (181) 
2.7216000000000005

>  <HBD>  (181) 
2

>  <HBA>  (181) 
6

>  <SMILES>  (181) 
[H]c1c([H])c(OC2([H])C([H])([H])C([H])([H])C([H])([H])C2([H])[H])c([H])c(N([H])c2nc3c(c([H])nn3C([H])([H])[H])c(=O)n2[H])c1[H]

$$$$
Z1576583090_pose7
     RDKit          3D

 43 46  0  0  0  0  0  0  0  0999 V2000
   -0.7432   44.0647   51.9110 C   0  0  0  0  0  0  0  0  0  0  0  0
    0.1581   44.7070   52.8343 N   0  0  0  0  0  0  0  0  0  0  0  0
   -0.3073   45.6972   53.6390 N   0  0  0  0  0  0  0  0  0  0  0  0
    0.7687   46.0578   54.3516 C   0  0  0  0  0  0  0  0  0  0  0  0
    1.8990   45.3137   54.0012 C   0  0  0  0  0  0  0  0  0  0  0  0
    3.2639   45.2758   54.4213 C   0  0  0  0  0  0  0  0  0  0  0  0
    3.7457   45.9942   55.2896 O   0  0  0  0  0  0  0  0  0  0  0  0
    3.9974   44.3313   53.7315 N   0  0  0  0  0  0  0  0  0  0  0  0
    3.4918   43.5031   52.7355 C   0  0  0  0  0  0  0  0  0  0  0  0
    4.3448   42.6032   52.1550 N   0  0  0  0  0  0  0  0  0  0  0  0
    5.6611   42.8575   51.7051 C   0  0  0  0  0  0  0  0  0  0  0  0
    6.5367   41.7706   51.5793 C   0  0  0  0  0  0  0  0  0  0  0  0
    7.8505   41.9590   51.1526 C   0  0  0  0  0  0  0  0  0  0  0  0
    8.3008   43.2415   50.8480 C   0  0  0  0  0  0  0  0  0  0  0  0
    7.4474   44.3399   50.9591 C   0  0  0  0  0  0  0  0  0  0  0  0
    8.0185   45.5338   50.6181 O   0  0  0  0  0  0  0  0  0  0  0  0
    8.0158   46.5931   51.5657 C   0  0  0  0  0  0  0  0  0  0  0  0
    8.6253   46.0923   52.8735 C   0  0  0  0  0  0  0  0  0  0  0  0
    9.0392   47.3631   53.6030 C   0  0  0  0  0  0  0  0  0  0  0  0
    9.2928   48.4054   52.5143 C   0  0  0  0  0  0  0  0  0  0  0  0
    8.9788   47.7163   51.1916 C   0  0  0  0  0  0  0  0  0  0  0  0
    6.1303   44.1420   51.3824 C   0  0  0  0  0  0  0  0  0  0  0  0
    2.2352   43.5230   52.3661 N   0  0  0  0  0  0  0  0  0  0  0  0
    1.4862   44.4460   53.0194 C   0  0  0  0  0  0  0  0  0  0  0  0
   -0.1779   43.3764   51.2655 H   0  0  0  0  0  0  0  0  0  0  0  0
   -1.5026   43.5006   52.4723 H   0  0  0  0  0  0  0  0  0  0  0  0
   -1.2371   44.8270   51.2904 H   0  0  0  0  0  0  0  0  0  0  0  0
    0.7631   46.8448   55.1201 H   0  0  0  0  0  0  0  0  0  0  0  0
    4.9609   44.2248   54.0079 H   0  0  0  0  0  0  0  0  0  0  0  0
    3.8573   41.9869   51.5110 H   0  0  0  0  0  0  0  0  0  0  0  0
    6.1833   40.7571   51.8199 H   0  0  0  0  0  0  0  0  0  0  0  0
    8.5288   41.0983   51.0568 H   0  0  0  0  0  0  0  0  0  0  0  0
    9.3392   43.3899   50.5167 H   0  0  0  0  0  0  0  0  0  0  0  0
    6.9715   46.9343   51.6219 H   0  0  0  0  0  0  0  0  0  0  0  0
    7.8835   45.5300   53.4596 H   0  0  0  0  0  0  0  0  0  0  0  0
    9.4695   45.4064   52.7097 H   0  0  0  0  0  0  0  0  0  0  0  0
    8.2349   47.6985   54.2742 H   0  0  0  0  0  0  0  0  0  0  0  0
    9.9328   47.2006   54.2234 H   0  0  0  0  0  0  0  0  0  0  0  0
    8.6352   49.2755   52.6575 H   0  0  0  0  0  0  0  0  0  0  0  0
   10.3295   48.7722   52.5413 H   0  0  0  0  0  0  0  0  0  0  0  0
    8.5040   48.4183   50.4904 H   0  0  0  0  0  0  0  0  0  0  0  0
    9.8833   47.3421   50.6896 H   0  0  0  0  0  0  0  0  0  0  0  0
    5.4516   45.0037   51.4641 H   0  0  0  0  0  0  0  0  0  0  0  0
  1  2  1  0
  2  3  1  0
  3  4  2  0
  4  5  1  0
  5  6  1  0
  6  7  2  0
  6  8  1  0
  8  9  1  0
  9 10  1  0
 10 11  1  0
 11 12  2  0
 12 13  1  0
 13 14  2  0
 14 15  1  0
 15 16  1  0
 16 17  1  0
 17 18  1  0
 18 19  1  0
 19 20  1  0
 20 21  1  0
 15 22  2  0
  9 23  2  0
 23 24  1  0
 24  2  1  0
 24  5  2  0
 22 11  1  0
 21 17  1  0
  1 25  1  0
  1 26  1  0
  1 27  1  0
  4 28  1  0
  8 29  1  0
 10 30  1  0
 12 31  1  0
 13 32  1  0
 14 33  1  0
 17 34  1  0
 18 35  1  0
 18 36  1  0
 19 37  1  0
 19 38  1  0
 20 39  1  0
 20 40  1  0
 21 41  1  0
 21 42  1  0
 22 43  1  0
M  END
>  <meeko>  (182) 
{"is_sidechain": false}

>  <CID>  (182) 
Z1576583090

>  <pose_index>  (182) 
7

>  <docking_score>  (182) 
-8.718

>  <rmsd_to_best_selected>  (182) 
0.8780993868238093

>  <MWT>  (182) 
325.3719999999997

>  <TPSA>  (182) 
84.83

>  <logP>  (182) 
2.7216000000000005

>  <HBD>  (182) 
2

>  <HBA>  (182) 
6

>  <SMILES>  (182) 
[H]c1c([H])c(OC2([H])C([H])([H])C([H])([H])C([H])([H])C2([H])[H])c([H])c(N([H])c2nc3c(c([H])nn3C([H])([H])[H])c(=O)n2[H])c1[H]

$$$$
Z1576583090_pose10
     RDKit          3D

 43 46  0  0  0  0  0  0  0  0999 V2000
   -1.2933   43.5159   51.6508 C   0  0  0  0  0  0  0  0  0  0  0  0
   -0.5644   44.2113   52.6825 N   0  0  0  0  0  0  0  0  0  0  0  0
   -1.2296   45.0513   53.5157 N   0  0  0  0  0  0  0  0  0  0  0  0
   -0.2715   45.5137   54.3319 C   0  0  0  0  0  0  0  0  0  0  0  0
    0.9818   44.9789   54.0165 C   0  0  0  0  0  0  0  0  0  0  0  0
    2.3066   45.1152   54.5353 C   0  0  0  0  0  0  0  0  0  0  0  0
    2.6127   45.8267   55.4846 O   0  0  0  0  0  0  0  0  0  0  0  0
    3.2210   44.3511   53.8393 N   0  0  0  0  0  0  0  0  0  0  0  0
    2.9174   43.5380   52.7530 C   0  0  0  0  0  0  0  0  0  0  0  0
    3.9359   42.8275   52.1773 N   0  0  0  0  0  0  0  0  0  0  0  0
    5.2222   43.3139   51.8479 C   0  0  0  0  0  0  0  0  0  0  0  0
    5.8701   42.7596   50.7348 C   0  0  0  0  0  0  0  0  0  0  0  0
    7.1443   43.1874   50.3661 C   0  0  0  0  0  0  0  0  0  0  0  0
    7.7826   44.1782   51.1088 C   0  0  0  0  0  0  0  0  0  0  0  0
    7.1560   44.7509   52.2174 C   0  0  0  0  0  0  0  0  0  0  0  0
    7.8926   45.7158   52.8452 O   0  0  0  0  0  0  0  0  0  0  0  0
    9.1099   46.1476   52.2521 C   0  0  0  0  0  0  0  0  0  0  0  0
    9.0026   47.6356   51.9266 C   0  0  0  0  0  0  0  0  0  0  0  0
   10.4491   48.0938   51.7949 C   0  0  0  0  0  0  0  0  0  0  0  0
   11.2694   47.1380   52.6609 C   0  0  0  0  0  0  0  0  0  0  0  0
   10.2775   46.1334   53.2345 C   0  0  0  0  0  0  0  0  0  0  0  0
    5.8764   44.3188   52.5774 C   0  0  0  0  0  0  0  0  0  0  0  0
    1.6990   43.3974   52.2921 N   0  0  0  0  0  0  0  0  0  0  0  0
    0.7736   44.1403   52.9488 C   0  0  0  0  0  0  0  0  0  0  0  0
   -2.0814   42.9009   52.1097 H   0  0  0  0  0  0  0  0  0  0  0  0
   -1.7499   44.2474   50.9679 H   0  0  0  0  0  0  0  0  0  0  0  0
   -0.6045   42.8689   51.0878 H   0  0  0  0  0  0  0  0  0  0  0  0
   -0.4495   46.2270   55.1501 H   0  0  0  0  0  0  0  0  0  0  0  0
    4.1697   44.3701   54.1798 H   0  0  0  0  0  0  0  0  0  0  0  0
    3.5927   42.1978   51.4569 H   0  0  0  0  0  0  0  0  0  0  0  0
    5.3672   41.9783   50.1460 H   0  0  0  0  0  0  0  0  0  0  0  0
    7.6439   42.7445   49.4920 H   0  0  0  0  0  0  0  0  0  0  0  0
    8.7898   44.5125   50.8192 H   0  0  0  0  0  0  0  0  0  0  0  0
    9.2733   45.4786   51.3944 H   0  0  0  0  0  0  0  0  0  0  0  0
    8.4568   47.7905   50.9842 H   0  0  0  0  0  0  0  0  0  0  0  0
    8.4510   48.1966   52.6954 H   0  0  0  0  0  0  0  0  0  0  0  0
   10.7752   48.0358   50.7459 H   0  0  0  0  0  0  0  0  0  0  0  0
   10.5736   49.1386   52.1157 H   0  0  0  0  0  0  0  0  0  0  0  0
   12.0253   46.6225   52.0502 H   0  0  0  0  0  0  0  0  0  0  0  0
   11.8044   47.6753   53.4577 H   0  0  0  0  0  0  0  0  0  0  0  0
   10.7271   45.1310   53.2899 H   0  0  0  0  0  0  0  0  0  0  0  0
    9.9667   46.3895   54.2581 H   0  0  0  0  0  0  0  0  0  0  0  0
    5.3749   44.7729   53.4448 H   0  0  0  0  0  0  0  0  0  0  0  0
  1  2  1  0
  2  3  1  0
  3  4  2  0
  4  5  1  0
  5  6  1  0
  6  7  2  0
  6  8  1  0
  8  9  1  0
  9 10  1  0
 10 11  1  0
 11 12  2  0
 12 13  1  0
 13 14  2  0
 14 15  1  0
 15 16  1  0
 16 17  1  0
 17 18  1  0
 18 19  1  0
 19 20  1  0
 20 21  1  0
 15 22  2  0
  9 23  2  0
 23 24  1  0
 24  2  1  0
 24  5  2  0
 22 11  1  0
 21 17  1  0
  1 25  1  0
  1 26  1  0
  1 27  1  0
  4 28  1  0
  8 29  1  0
 10 30  1  0
 12 31  1  0
 13 32  1  0
 14 33  1  0
 17 34  1  0
 18 35  1  0
 18 36  1  0
 19 37  1  0
 19 38  1  0
 20 39  1  0
 20 40  1  0
 21 41  1  0
 21 42  1  0
 22 43  1  0
M  END
>  <meeko>  (183) 
{"is_sidechain": false}

>  <CID>  (183) 
Z1576583090

>  <pose_index>  (183) 
10

>  <docking_score>  (183) 
-8.576

>  <rmsd_to_best_selected>  (183) 
1.4452569423634594

>  <MWT>  (183) 
325.3719999999997

>  <TPSA>  (183) 
84.83

>  <logP>  (183) 
2.7216000000000005

>  <HBD>  (183) 
2

>  <HBA>  (183) 
6

>  <SMILES>  (183) 
[H]c1c([H])c(OC2([H])C([H])([H])C([H])([H])C([H])([H])C2([H])[H])c([H])c(N([H])c2nc3c(c([H])nn3C([H])([H])[H])c(=O)n2[H])c1[H]

$$$$
Z1587211729_pose1
     RDKit          3D

 34 36  0  0  0  0  0  0  0  0999 V2000
    5.2020   47.5700   54.5390 O   0  0  0  0  0  0  0  0  0  0  0  0
    5.7090   46.7470   53.4570 S   0  0  0  0  0  0  0  0  0  0  0  0
    5.2400   46.9700   52.0990 O   0  0  0  0  0  0  0  0  0  0  0  0
    5.3910   45.0450   53.8450 C   0  0  0  0  0  0  0  0  0  0  0  0
    3.9690   44.6170   53.5340 C   0  0  0  0  0  0  0  0  0  0  0  0
    3.7490   44.6180   52.0890 N   0  0  0  0  0  0  0  0  0  0  0  0
    4.2800   43.5200   51.4100 C   0  0  0  0  0  0  0  0  0  0  0  0
    3.7070   42.3010   51.4450 N   0  0  0  0  0  0  0  0  0  0  0  0
    4.2770   41.2960   50.7450 C   0  0  0  0  0  0  0  0  0  0  0  0
    5.3800   41.3340   49.9880 N   0  0  0  0  0  0  0  0  0  0  0  0
    5.9550   42.5490   49.9840 C   0  0  0  0  0  0  0  0  0  0  0  0
    7.1090   42.8860   49.3270 N   0  0  0  0  0  0  0  0  0  0  0  0
    7.3170   44.1480   49.6320 C   0  0  0  0  0  0  0  0  0  0  0  0
    6.3360   44.6410   50.4470 N   0  0  0  0  0  0  0  0  0  0  0  0
    5.4400   43.6320   50.6680 C   0  0  0  0  0  0  0  0  0  0  0  0
    7.4790   46.9170   53.4130 C   0  0  0  0  0  0  0  0  0  0  0  0
    8.1710   47.1840   54.5970 C   0  0  0  0  0  0  0  0  0  0  0  0
    9.5610   47.3020   54.5690 C   0  0  0  0  0  0  0  0  0  0  0  0
   10.2520   47.1430   53.3660 C   0  0  0  0  0  0  0  0  0  0  0  0
    9.5570   46.8600   52.1890 C   0  0  0  0  0  0  0  0  0  0  0  0
    8.1670   46.7370   52.2090 C   0  0  0  0  0  0  0  0  0  0  0  0
    6.0806   44.4183   53.2604 H   0  0  0  0  0  0  0  0  0  0  0  0
    5.5397   44.9232   54.9281 H   0  0  0  0  0  0  0  0  0  0  0  0
    3.7998   43.6037   53.9271 H   0  0  0  0  0  0  0  0  0  0  0  0
    3.2693   45.3229   54.0053 H   0  0  0  0  0  0  0  0  0  0  0  0
    2.7720   44.7210   51.8250 H   0  0  0  0  0  0  0  0  0  0  0  0
    3.7697   40.3218   50.8049 H   0  0  0  0  0  0  0  0  0  0  0  0
    8.1756   44.7356   49.2750 H   0  0  0  0  0  0  0  0  0  0  0  0
    6.3020   45.5620   50.8620 H   0  0  0  0  0  0  0  0  0  0  0  0
    7.6240   47.3003   55.5443 H   0  0  0  0  0  0  0  0  0  0  0  0
   10.1129   47.5204   55.4951 H   0  0  0  0  0  0  0  0  0  0  0  0
   11.3474   47.2411   53.3458 H   0  0  0  0  0  0  0  0  0  0  0  0
   10.1058   46.7337   51.2441 H   0  0  0  0  0  0  0  0  0  0  0  0
    7.6175   46.5006   51.2859 H   0  0  0  0  0  0  0  0  0  0  0  0
  1  2  2  0
  2  3  2  0
  2  4  1  0
  4  5  1  0
  5  6  1  0
  6  7  1  0
  7  8  2  0
  8  9  1  0
  9 10  2  0
 10 11  1  0
 11 12  1  0
 12 13  2  0
 13 14  1  0
 14 15  1  0
  2 16  1  0
 16 17  2  0
 17 18  1  0
 18 19  2  0
 19 20  1  0
 20 21  2  0
 15  7  1  0
 21 16  1  0
 15 11  2  0
  4 22  1  0
  4 23  1  0
  5 24  1  0
  5 25  1  0
  6 26  1  0
  9 27  1  0
 13 28  1  0
 14 29  1  0
 17 30  1  0
 18 31  1  0
 19 32  1  0
 20 33  1  0
 21 34  1  0
M  END
>  <meeko>  (184) 
{"is_sidechain": false}

>  <CID>  (184) 
Z1587211729

>  <pose_index>  (184) 
1

>  <docking_score>  (184) 
-8.038

>  <rmsd_to_best_selected>  (184) 
0.0

>  <MWT>  (184) 
303.3469999999998

>  <TPSA>  (184) 
100.63

>  <logP>  (184) 
1.238699999999999

>  <HBD>  (184) 
2

>  <HBA>  (184) 
6

>  <SMILES>  (184) 
[H]c1nc(N([H])C([H])([H])C([H])([H])S(=O)(=O)c2c([H])c([H])c([H])c([H])c2[H])c2c(n1)nc([H])n2[H]

$$$$
Z1587211729_pose2
     RDKit          3D

 34 36  0  0  0  0  0  0  0  0999 V2000
    5.0802   47.1239   52.9801 O   0  0  0  0  0  0  0  0  0  0  0  0
    6.2182   46.2740   52.6861 S   0  0  0  0  0  0  0  0  0  0  0  0
    6.4685   45.8508   51.3186 O   0  0  0  0  0  0  0  0  0  0  0  0
    6.0931   44.8036   53.6723 C   0  0  0  0  0  0  0  0  0  0  0  0
    4.6785   44.2652   53.7638 C   0  0  0  0  0  0  0  0  0  0  0  0
    4.5969   42.9581   53.1133 N   0  0  0  0  0  0  0  0  0  0  0  0
    4.2329   42.9902   51.7654 C   0  0  0  0  0  0  0  0  0  0  0  0
    2.9560   43.1442   51.3638 N   0  0  0  0  0  0  0  0  0  0  0  0
    2.6931   43.1807   50.0393 C   0  0  0  0  0  0  0  0  0  0  0  0
    3.5535   43.0798   49.0195 N   0  0  0  0  0  0  0  0  0  0  0  0
    4.8193   42.9013   49.4358 C   0  0  0  0  0  0  0  0  0  0  0  0
    5.9110   42.7349   48.6261 N   0  0  0  0  0  0  0  0  0  0  0  0
    6.9203   42.5533   49.4494 C   0  0  0  0  0  0  0  0  0  0  0  0
    6.5234   42.6106   50.7568 N   0  0  0  0  0  0  0  0  0  0  0  0
    5.1781   42.8532   50.7679 C   0  0  0  0  0  0  0  0  0  0  0  0
    7.6899   47.1071   53.2345 C   0  0  0  0  0  0  0  0  0  0  0  0
    8.6284   47.5326   52.2898 C   0  0  0  0  0  0  0  0  0  0  0  0
    9.7777   48.2016   52.7140 C   0  0  0  0  0  0  0  0  0  0  0  0
    9.9789   48.4511   54.0733 C   0  0  0  0  0  0  0  0  0  0  0  0
    9.0304   48.0368   55.0115 C   0  0  0  0  0  0  0  0  0  0  0  0
    7.8777   47.3713   54.5935 C   0  0  0  0  0  0  0  0  0  0  0  0
    6.7343   44.0285   53.2273 H   0  0  0  0  0  0  0  0  0  0  0  0
    6.4101   45.0659   54.6925 H   0  0  0  0  0  0  0  0  0  0  0  0
    4.3953   44.1636   54.8219 H   0  0  0  0  0  0  0  0  0  0  0  0
    3.9938   44.9626   53.2591 H   0  0  0  0  0  0  0  0  0  0  0  0
    5.4433   42.4017   53.2063 H   0  0  0  0  0  0  0  0  0  0  0  0
    1.6360   43.3098   49.7637 H   0  0  0  0  0  0  0  0  0  0  0  0
    7.9568   42.3768   49.1260 H   0  0  0  0  0  0  0  0  0  0  0  0
    7.1002   42.4465   51.5704 H   0  0  0  0  0  0  0  0  0  0  0  0
    8.4622   47.3416   51.2194 H   0  0  0  0  0  0  0  0  0  0  0  0
   10.5250   48.5321   51.9777 H   0  0  0  0  0  0  0  0  0  0  0  0
   10.8868   48.9755   54.4061 H   0  0  0  0  0  0  0  0  0  0  0  0
    9.1926   48.2355   56.0812 H   0  0  0  0  0  0  0  0  0  0  0  0
    7.1221   47.0569   55.3286 H   0  0  0  0  0  0  0  0  0  0  0  0
  1  2  2  0
  2  3  2  0
  2  4  1  0
  4  5  1  0
  5  6  1  0
  6  7  1  0
  7  8  2  0
  8  9  1  0
  9 10  2  0
 10 11  1  0
 11 12  1  0
 12 13  2  0
 13 14  1  0
 14 15  1  0
  2 16  1  0
 16 17  2  0
 17 18  1  0
 18 19  2  0
 19 20  1  0
 20 21  2  0
 15  7  1  0
 21 16  1  0
 15 11  2  0
  4 22  1  0
  4 23  1  0
  5 24  1  0
  5 25  1  0
  6 26  1  0
  9 27  1  0
 13 28  1  0
 14 29  1  0
 17 30  1  0
 18 31  1  0
 19 32  1  0
 20 33  1  0
 21 34  1  0
M  END
>  <meeko>  (185) 
{"is_sidechain": false}

>  <CID>  (185) 
Z1587211729

>  <pose_index>  (185) 
2

>  <docking_score>  (185) 
-7.997

>  <rmsd_to_best_selected>  (185) 
1.7792653135418188

>  <MWT>  (185) 
303.3469999999998

>  <TPSA>  (185) 
100.63

>  <logP>  (185) 
1.238699999999999

>  <HBD>  (185) 
2

>  <HBA>  (185) 
6

>  <SMILES>  (185) 
[H]c1nc(N([H])C([H])([H])C([H])([H])S(=O)(=O)c2c([H])c([H])c([H])c([H])c2[H])c2c(n1)nc([H])n2[H]

$$$$
Z1587211729_pose4
     RDKit          3D

 34 36  0  0  0  0  0  0  0  0999 V2000
    6.6553   45.8423   56.2742 O   0  0  0  0  0  0  0  0  0  0  0  0
    6.1090   45.7900   54.9309 S   0  0  0  0  0  0  0  0  0  0  0  0
    4.8027   46.3650   54.6601 O   0  0  0  0  0  0  0  0  0  0  0  0
    6.0510   44.0943   54.4110 C   0  0  0  0  0  0  0  0  0  0  0  0
    4.6799   43.6669   53.9233 C   0  0  0  0  0  0  0  0  0  0  0  0
    4.8124   42.7832   52.7658 N   0  0  0  0  0  0  0  0  0  0  0  0
    4.6500   43.4032   51.5259 C   0  0  0  0  0  0  0  0  0  0  0  0
    3.4503   43.8277   51.0805 N   0  0  0  0  0  0  0  0  0  0  0  0
    3.3834   44.4324   49.8745 C   0  0  0  0  0  0  0  0  0  0  0  0
    4.3792   44.6842   49.0166 N   0  0  0  0  0  0  0  0  0  0  0  0
    5.5643   44.2340   49.4629 C   0  0  0  0  0  0  0  0  0  0  0  0
    6.7553   44.3186   48.7927 N   0  0  0  0  0  0  0  0  0  0  0  0
    7.6278   43.7196   49.5746 C   0  0  0  0  0  0  0  0  0  0  0  0
    7.0478   43.2669   50.7270 N   0  0  0  0  0  0  0  0  0  0  0  0
    5.7236   43.6059   50.6818 C   0  0  0  0  0  0  0  0  0  0  0  0
    7.2531   46.5994   53.8346 C   0  0  0  0  0  0  0  0  0  0  0  0
    8.2806   47.3809   54.3714 C   0  0  0  0  0  0  0  0  0  0  0  0
    9.1890   48.0035   53.5150 C   0  0  0  0  0  0  0  0  0  0  0  0
    9.0761   47.8363   52.1333 C   0  0  0  0  0  0  0  0  0  0  0  0
    8.0574   47.0413   51.6037 C   0  0  0  0  0  0  0  0  0  0  0  0
    7.1472   46.4126   52.4534 C   0  0  0  0  0  0  0  0  0  0  0  0
    6.7727   43.9543   53.5927 H   0  0  0  0  0  0  0  0  0  0  0  0
    6.2950   43.4747   55.2866 H   0  0  0  0  0  0  0  0  0  0  0  0
    4.1564   43.1337   54.7305 H   0  0  0  0  0  0  0  0  0  0  0  0
    4.1067   44.5594   53.6318 H   0  0  0  0  0  0  0  0  0  0  0  0
    5.6835   42.2573   52.7522 H   0  0  0  0  0  0  0  0  0  0  0  0
    2.3824   44.7598   49.5569 H   0  0  0  0  0  0  0  0  0  0  0  0
    8.6936   43.5978   49.3309 H   0  0  0  0  0  0  0  0  0  0  0  0
    7.4949   42.7282   51.4556 H   0  0  0  0  0  0  0  0  0  0  0  0
    8.3720   47.5039   55.4607 H   0  0  0  0  0  0  0  0  0  0  0  0
    9.9953   48.6269   53.9288 H   0  0  0  0  0  0  0  0  0  0  0  0
    9.7913   48.3320   51.4603 H   0  0  0  0  0  0  0  0  0  0  0  0
    7.9727   46.9106   50.5148 H   0  0  0  0  0  0  0  0  0  0  0  0
    6.3522   45.7748   52.0397 H   0  0  0  0  0  0  0  0  0  0  0  0
  1  2  2  0
  2  3  2  0
  2  4  1  0
  4  5  1  0
  5  6  1  0
  6  7  1  0
  7  8  2  0
  8  9  1  0
  9 10  2  0
 10 11  1  0
 11 12  1  0
 12 13  2  0
 13 14  1  0
 14 15  1  0
  2 16  1  0
 16 17  2  0
 17 18  1  0
 18 19  2  0
 19 20  1  0
 20 21  2  0
 15  7  1  0
 21 16  1  0
 15 11  2  0
  4 22  1  0
  4 23  1  0
  5 24  1  0
  5 25  1  0
  6 26  1  0
  9 27  1  0
 13 28  1  0
 14 29  1  0
 17 30  1  0
 18 31  1  0
 19 32  1  0
 20 33  1  0
 21 34  1  0
M  END
>  <meeko>  (186) 
{"is_sidechain": false}

>  <CID>  (186) 
Z1587211729

>  <pose_index>  (186) 
4

>  <docking_score>  (186) 
-7.851

>  <rmsd_to_best_selected>  (186) 
1.8380553762856822

>  <MWT>  (186) 
303.3469999999998

>  <TPSA>  (186) 
100.63

>  <logP>  (186) 
1.238699999999999

>  <HBD>  (186) 
2

>  <HBA>  (186) 
6

>  <SMILES>  (186) 
[H]c1nc(N([H])C([H])([H])C([H])([H])S(=O)(=O)c2c([H])c([H])c([H])c([H])c2[H])c2c(n1)nc([H])n2[H]

$$$$
Z1587211729_pose5
     RDKit          3D

 34 36  0  0  0  0  0  0  0  0999 V2000
    7.3083   43.4226   53.4592 O   0  0  0  0  0  0  0  0  0  0  0  0
    7.2591   44.4744   54.4583 S   0  0  0  0  0  0  0  0  0  0  0  0
    7.8461   44.2540   55.7694 O   0  0  0  0  0  0  0  0  0  0  0  0
    5.5627   44.9282   54.7150 C   0  0  0  0  0  0  0  0  0  0  0  0
    4.7459   44.9345   53.4366 C   0  0  0  0  0  0  0  0  0  0  0  0
    4.5634   43.5676   52.9521 N   0  0  0  0  0  0  0  0  0  0  0  0
    4.2554   43.4574   51.5944 C   0  0  0  0  0  0  0  0  0  0  0  0
    3.0421   43.0651   51.1579 N   0  0  0  0  0  0  0  0  0  0  0  0
    2.8226   43.0008   49.8258 C   0  0  0  0  0  0  0  0  0  0  0  0
    3.6721   43.2810   48.8307 N   0  0  0  0  0  0  0  0  0  0  0  0
    4.8842   43.6455   49.2819 C   0  0  0  0  0  0  0  0  0  0  0  0
    5.9659   43.9611   48.5034 N   0  0  0  0  0  0  0  0  0  0  0  0
    6.9366   44.2115   49.3548 C   0  0  0  0  0  0  0  0  0  0  0  0
    6.5185   44.0838   50.6506 N   0  0  0  0  0  0  0  0  0  0  0  0
    5.1952   43.7396   50.6238 C   0  0  0  0  0  0  0  0  0  0  0  0
    8.0551   45.9161   53.7854 C   0  0  0  0  0  0  0  0  0  0  0  0
    8.6173   45.8543   52.5073 C   0  0  0  0  0  0  0  0  0  0  0  0
    9.2283   46.9881   51.9700 C   0  0  0  0  0  0  0  0  0  0  0  0
    9.2665   48.1757   52.7029 C   0  0  0  0  0  0  0  0  0  0  0  0
    8.6895   48.2352   53.9739 C   0  0  0  0  0  0  0  0  0  0  0  0
    8.0729   47.1073   54.5154 C   0  0  0  0  0  0  0  0  0  0  0  0
    5.1108   44.2101   55.4151 H   0  0  0  0  0  0  0  0  0  0  0  0
    5.5552   45.9537   55.1129 H   0  0  0  0  0  0  0  0  0  0  0  0
    3.7622   45.3848   53.6352 H   0  0  0  0  0  0  0  0  0  0  0  0
    5.2773   45.5202   52.6720 H   0  0  0  0  0  0  0  0  0  0  0  0
    5.3489   42.9545   53.1563 H   0  0  0  0  0  0  0  0  0  0  0  0
    1.8167   42.6766   49.5207 H   0  0  0  0  0  0  0  0  0  0  0  0
    7.9594   44.4896   49.0607 H   0  0  0  0  0  0  0  0  0  0  0  0
    7.0896   44.1684   51.4794 H   0  0  0  0  0  0  0  0  0  0  0  0
    8.5783   44.9192   51.9293 H   0  0  0  0  0  0  0  0  0  0  0  0
    9.6804   46.9460   50.9681 H   0  0  0  0  0  0  0  0  0  0  0  0
    9.7520   49.0668   52.2785 H   0  0  0  0  0  0  0  0  0  0  0  0
    8.7216   49.1728   54.5484 H   0  0  0  0  0  0  0  0  0  0  0  0
    7.6042   47.1552   55.5094 H   0  0  0  0  0  0  0  0  0  0  0  0
  1  2  2  0
  2  3  2  0
  2  4  1  0
  4  5  1  0
  5  6  1  0
  6  7  1  0
  7  8  2  0
  8  9  1  0
  9 10  2  0
 10 11  1  0
 11 12  1  0
 12 13  2  0
 13 14  1  0
 14 15  1  0
  2 16  1  0
 16 17  2  0
 17 18  1  0
 18 19  2  0
 19 20  1  0
 20 21  2  0
 15  7  1  0
 21 16  1  0
 15 11  2  0
  4 22  1  0
  4 23  1  0
  5 24  1  0
  5 25  1  0
  6 26  1  0
  9 27  1  0
 13 28  1  0
 14 29  1  0
 17 30  1  0
 18 31  1  0
 19 32  1  0
 20 33  1  0
 21 34  1  0
M  END
>  <meeko>  (187) 
{"is_sidechain": false}

>  <CID>  (187) 
Z1587211729

>  <pose_index>  (187) 
5

>  <docking_score>  (187) 
-7.826

>  <rmsd_to_best_selected>  (187) 
1.8878602447053328

>  <MWT>  (187) 
303.3469999999998

>  <TPSA>  (187) 
100.63

>  <logP>  (187) 
1.238699999999999

>  <HBD>  (187) 
2

>  <HBA>  (187) 
6

>  <SMILES>  (187) 
[H]c1nc(N([H])C([H])([H])C([H])([H])S(=O)(=O)c2c([H])c([H])c([H])c([H])c2[H])c2c(n1)nc([H])n2[H]

$$$$
Z1587211729_pose7
     RDKit          3D

 34 36  0  0  0  0  0  0  0  0999 V2000
    6.9557   44.1003   53.6592 O   0  0  0  0  0  0  0  0  0  0  0  0
    6.5711   45.4738   53.9217 S   0  0  0  0  0  0  0  0  0  0  0  0
    5.8426   45.8007   55.1368 O   0  0  0  0  0  0  0  0  0  0  0  0
    5.5997   46.0596   52.5575 C   0  0  0  0  0  0  0  0  0  0  0  0
    4.1527   45.6071   52.6171 C   0  0  0  0  0  0  0  0  0  0  0  0
    4.0867   44.1511   52.7282 N   0  0  0  0  0  0  0  0  0  0  0  0
    3.9076   43.4732   51.5203 C   0  0  0  0  0  0  0  0  0  0  0  0
    2.6873   43.1963   51.0203 N   0  0  0  0  0  0  0  0  0  0  0  0
    2.6036   42.5505   49.8367 C   0  0  0  0  0  0  0  0  0  0  0  0
    3.5997   42.1250   49.0513 N   0  0  0  0  0  0  0  0  0  0  0  0
    4.8098   42.3864   49.5751 C   0  0  0  0  0  0  0  0  0  0  0  0
    6.0134   42.0435   49.0183 N   0  0  0  0  0  0  0  0  0  0  0  0
    6.9156   42.4531   49.8820 C   0  0  0  0  0  0  0  0  0  0  0  0
    6.3420   43.0574   50.9659 N   0  0  0  0  0  0  0  0  0  0  0  0
    4.9879   43.0412   50.7765 C   0  0  0  0  0  0  0  0  0  0  0  0
    8.0453   46.4691   53.9362 C   0  0  0  0  0  0  0  0  0  0  0  0
    8.7089   46.6940   55.1451 C   0  0  0  0  0  0  0  0  0  0  0  0
    9.8751   47.4605   55.1572 C   0  0  0  0  0  0  0  0  0  0  0  0
   10.3762   47.9898   53.9668 C   0  0  0  0  0  0  0  0  0  0  0  0
    9.7168   47.7492   52.7593 C   0  0  0  0  0  0  0  0  0  0  0  0
    8.5536   46.9800   52.7382 C   0  0  0  0  0  0  0  0  0  0  0  0
    5.6225   47.1593   52.5586 H   0  0  0  0  0  0  0  0  0  0  0  0
    6.0366   45.6385   51.6400 H   0  0  0  0  0  0  0  0  0  0  0  0
    3.6651   46.0614   53.4922 H   0  0  0  0  0  0  0  0  0  0  0  0
    3.6385   45.9219   51.6971 H   0  0  0  0  0  0  0  0  0  0  0  0
    4.8819   43.7420   53.2129 H   0  0  0  0  0  0  0  0  0  0  0  0
    1.5858   42.3487   49.4718 H   0  0  0  0  0  0  0  0  0  0  0  0
    8.0000   42.3253   49.7488 H   0  0  0  0  0  0  0  0  0  0  0  0
    6.8188   43.4029   51.7878 H   0  0  0  0  0  0  0  0  0  0  0  0
    8.3150   46.2700   56.0805 H   0  0  0  0  0  0  0  0  0  0  0  0
   10.3998   47.6478   56.1057 H   0  0  0  0  0  0  0  0  0  0  0  0
   11.2928   48.5978   53.9797 H   0  0  0  0  0  0  0  0  0  0  0  0
   10.1157   48.1672   51.8233 H   0  0  0  0  0  0  0  0  0  0  0  0
    8.0403   46.7770   51.7867 H   0  0  0  0  0  0  0  0  0  0  0  0
  1  2  2  0
  2  3  2  0
  2  4  1  0
  4  5  1  0
  5  6  1  0
  6  7  1  0
  7  8  2  0
  8  9  1  0
  9 10  2  0
 10 11  1  0
 11 12  1  0
 12 13  2  0
 13 14  1  0
 14 15  1  0
  2 16  1  0
 16 17  2  0
 17 18  1  0
 18 19  2  0
 19 20  1  0
 20 21  2  0
 15  7  1  0
 21 16  1  0
 15 11  2  0
  4 22  1  0
  4 23  1  0
  5 24  1  0
  5 25  1  0
  6 26  1  0
  9 27  1  0
 13 28  1  0
 14 29  1  0
 17 30  1  0
 18 31  1  0
 19 32  1  0
 20 33  1  0
 21 34  1  0
M  END
>  <meeko>  (188) 
{"is_sidechain": false}

>  <CID>  (188) 
Z1587211729

>  <pose_index>  (188) 
7

>  <docking_score>  (188) 
-7.714

>  <rmsd_to_best_selected>  (188) 
1.7660632180335296

>  <MWT>  (188) 
303.3469999999998

>  <TPSA>  (188) 
100.63

>  <logP>  (188) 
1.238699999999999

>  <HBD>  (188) 
2

>  <HBA>  (188) 
6

>  <SMILES>  (188) 
[H]c1nc(N([H])C([H])([H])C([H])([H])S(=O)(=O)c2c([H])c([H])c([H])c([H])c2[H])c2c(n1)nc([H])n2[H]

$$$$
Z16226176_pose3
     RDKit          3D

 45 48  0  0  0  0  0  0  0  0999 V2000
    4.2366   48.1701   52.2454 O   0  0  0  0  0  0  0  0  0  0  0  0
    4.3077   47.2494   53.0580 C   0  0  0  0  0  0  0  0  0  0  0  0
    3.2064   46.2154   53.2073 C   0  0  0  0  0  0  0  0  0  0  0  0
    2.3126   45.9957   51.6420 S   0  0  0  0  0  0  0  0  0  0  0  0
    2.2625   44.2774   51.5235 C   0  0  0  0  0  0  0  0  0  0  0  0
    1.2068   43.4987   51.7032 N   0  0  0  0  0  0  0  0  0  0  0  0
    1.5963   42.1719   51.5033 N   0  0  0  0  0  0  0  0  0  0  0  0
    2.8672   42.2049   51.1991 C   0  0  0  0  0  0  0  0  0  0  0  0
    3.8857   41.3657   50.8974 N   0  0  0  0  0  0  0  0  0  0  0  0
    5.0444   42.1671   50.8374 C   0  0  0  0  0  0  0  0  0  0  0  0
    6.3428   41.8182   50.5580 C   0  0  0  0  0  0  0  0  0  0  0  0
    7.2854   42.8545   50.4912 C   0  0  0  0  0  0  0  0  0  0  0  0
    6.9142   44.2070   50.6781 C   0  0  0  0  0  0  0  0  0  0  0  0
    5.5903   44.5677   50.9325 C   0  0  0  0  0  0  0  0  0  0  0  0
    4.6934   43.5288   50.9948 C   0  0  0  0  0  0  0  0  0  0  0  0
    3.3291   43.4969   51.2324 N   0  0  0  0  0  0  0  0  0  0  0  0
    5.3870   47.0620   53.8992 N   0  0  0  0  0  0  0  0  0  0  0  0
    6.4653   48.0274   53.9432 C   0  0  0  0  0  0  0  0  0  0  0  0
    7.7977   47.4877   53.4032 C   0  0  0  0  0  0  0  0  0  0  0  0
    7.8138   47.4228   51.8677 C   0  0  0  0  0  0  0  0  0  0  0  0
    9.1522   46.9097   51.3383 C   0  0  0  0  0  0  0  0  0  0  0  0
    9.5297   45.5675   51.9584 C   0  0  0  0  0  0  0  0  0  0  0  0
    9.5120   45.6260   53.4836 C   0  0  0  0  0  0  0  0  0  0  0  0
    8.1670   46.1237   54.0091 C   0  0  0  0  0  0  0  0  0  0  0  0
    3.6516   45.2549   53.5063 H   0  0  0  0  0  0  0  0  0  0  0  0
    2.4972   46.5632   53.9727 H   0  0  0  0  0  0  0  0  0  0  0  0
    3.9202   40.3884   51.1454 H   0  0  0  0  0  0  0  0  0  0  0  0
    6.6315   40.7696   50.3935 H   0  0  0  0  0  0  0  0  0  0  0  0
    8.3386   42.6100   50.2886 H   0  0  0  0  0  0  0  0  0  0  0  0
    7.6847   44.9900   50.6217 H   0  0  0  0  0  0  0  0  0  0  0  0
    5.2849   45.6149   51.0739 H   0  0  0  0  0  0  0  0  0  0  0  0
    5.1943   46.5405   54.7529 H   0  0  0  0  0  0  0  0  0  0  0  0
    6.1745   48.9009   53.3411 H   0  0  0  0  0  0  0  0  0  0  0  0
    6.6261   48.2825   55.0010 H   0  0  0  0  0  0  0  0  0  0  0  0
    8.5668   48.2080   53.7190 H   0  0  0  0  0  0  0  0  0  0  0  0
    7.0143   46.7466   51.5309 H   0  0  0  0  0  0  0  0  0  0  0  0
    7.6586   48.4403   51.4796 H   0  0  0  0  0  0  0  0  0  0  0  0
    9.0814   46.7905   50.2471 H   0  0  0  0  0  0  0  0  0  0  0  0
    9.9290   47.6409   51.6066 H   0  0  0  0  0  0  0  0  0  0  0  0
    8.8117   44.8049   51.6224 H   0  0  0  0  0  0  0  0  0  0  0  0
   10.5510   45.3159   51.6365 H   0  0  0  0  0  0  0  0  0  0  0  0
    9.7007   44.6183   53.8822 H   0  0  0  0  0  0  0  0  0  0  0  0
   10.2920   46.3291   53.8111 H   0  0  0  0  0  0  0  0  0  0  0  0
    7.3877   45.3929   53.7470 H   0  0  0  0  0  0  0  0  0  0  0  0
    8.2430   46.2389   55.1004 H   0  0  0  0  0  0  0  0  0  0  0  0
  1  2  2  0
  2  3  1  0
  3  4  1  0
  4  5  1  0
  5  6  2  0
  6  7  1  0
  7  8  2  0
  8  9  1  0
  9 10  1  0
 10 11  2  0
 11 12  1  0
 12 13  2  0
 13 14  1  0
 14 15  2  0
 15 16  1  0
  2 17  1  0
 17 18  1  0
 18 19  1  0
 19 20  1  0
 20 21  1  0
 21 22  1  0
 22 23  1  0
 23 24  1  0
 16  5  1  0
 24 19  1  0
 16  8  1  0
 15 10  1  0
  3 25  1  0
  3 26  1  0
  9 27  1  0
 11 28  1  0
 12 29  1  0
 13 30  1  0
 14 31  1  0
 17 32  1  0
 18 33  1  0
 18 34  1  0
 19 35  1  0
 20 36  1  0
 20 37  1  0
 21 38  1  0
 21 39  1  0
 22 40  1  0
 22 41  1  0
 23 42  1  0
 23 43  1  0
 24 44  1  0
 24 45  1  0
M  END
>  <meeko>  (189) 
{"is_sidechain": false}

>  <CID>  (189) 
Z16226176

>  <pose_index>  (189) 
3

>  <docking_score>  (189) 
-9.061

>  <rmsd_to_best_selected>  (189) 
1.4790245489092575

>  <MWT>  (189) 
343.45599999999973

>  <TPSA>  (189) 
75.08

>  <logP>  (189) 
2.999200000000002

>  <HBD>  (189) 
2

>  <HBA>  (189) 
5

>  <SMILES>  (189) 
[H]c1c([H])c([H])c2c(c1[H])n([H])c1nnc(SC([H])([H])C(=O)N([H])C([H])([H])C3([H])C([H])([H])C([H])([H])C([H])([H])C([H])([H])C3([H])[H])n21

$$$$
Z16226176_pose1
     RDKit          3D

 45 48  0  0  0  0  0  0  0  0999 V2000
    4.2480   48.7280   54.0640 O   0  0  0  0  0  0  0  0  0  0  0  0
    4.1190   47.6020   53.5900 C   0  0  0  0  0  0  0  0  0  0  0  0
    2.8840   47.1890   52.8080 C   0  0  0  0  0  0  0  0  0  0  0  0
    3.3490   46.4470   51.2170 S   0  0  0  0  0  0  0  0  0  0  0  0
    2.8940   44.8050   51.4690 C   0  0  0  0  0  0  0  0  0  0  0  0
    1.7780   44.3670   52.0320 N   0  0  0  0  0  0  0  0  0  0  0  0
    1.8000   42.9700   52.0300 N   0  0  0  0  0  0  0  0  0  0  0  0
    2.9210   42.6220   51.4550 C   0  0  0  0  0  0  0  0  0  0  0  0
    3.6150   41.5090   51.1180 N   0  0  0  0  0  0  0  0  0  0  0  0
    4.8630   41.9590   50.6420 C   0  0  0  0  0  0  0  0  0  0  0  0
    5.9340   41.2440   50.1640 C   0  0  0  0  0  0  0  0  0  0  0  0
    7.0290   41.9730   49.6810 C   0  0  0  0  0  0  0  0  0  0  0  0
    7.0260   43.3880   49.6610 C   0  0  0  0  0  0  0  0  0  0  0  0
    5.9280   44.1180   50.1180 C   0  0  0  0  0  0  0  0  0  0  0  0
    4.8740   43.3730   50.5890 C   0  0  0  0  0  0  0  0  0  0  0  0
    3.6480   43.7370   51.1200 N   0  0  0  0  0  0  0  0  0  0  0  0
    5.0750   46.6120   53.7130 N   0  0  0  0  0  0  0  0  0  0  0  0
    6.2590   46.8250   54.5190 C   0  0  0  0  0  0  0  0  0  0  0  0
    7.5650   46.4390   53.8110 C   0  0  0  0  0  0  0  0  0  0  0  0
    8.7590   47.2690   54.3090 C   0  0  0  0  0  0  0  0  0  0  0  0
   10.0590   46.8590   53.6180 C   0  0  0  0  0  0  0  0  0  0  0  0
    9.9350   46.9170   52.0980 C   0  0  0  0  0  0  0  0  0  0  0  0
    8.7480   46.0980   51.5980 C   0  0  0  0  0  0  0  0  0  0  0  0
    7.4480   46.5200   52.2790 C   0  0  0  0  0  0  0  0  0  0  0  0
    2.3134   46.4548   53.3957 H   0  0  0  0  0  0  0  0  0  0  0  0
    2.2723   48.0828   52.6157 H   0  0  0  0  0  0  0  0  0  0  0  0
    3.4980   40.6040   51.5480 H   0  0  0  0  0  0  0  0  0  0  0  0
    5.9322   40.1440   50.1605 H   0  0  0  0  0  0  0  0  0  0  0  0
    7.9117   41.4326   49.3086 H   0  0  0  0  0  0  0  0  0  0  0  0
    7.9071   43.9233   49.2774 H   0  0  0  0  0  0  0  0  0  0  0  0
    5.9077   45.2177   50.1022 H   0  0  0  0  0  0  0  0  0  0  0  0
    4.7330   45.6560   53.6330 H   0  0  0  0  0  0  0  0  0  0  0  0
    6.3105   47.8910   54.7856 H   0  0  0  0  0  0  0  0  0  0  0  0
    6.1679   46.1754   55.4020 H   0  0  0  0  0  0  0  0  0  0  0  0
    7.7520   45.3872   54.0732 H   0  0  0  0  0  0  0  0  0  0  0  0
    8.5653   48.3319   54.1025 H   0  0  0  0  0  0  0  0  0  0  0  0
    8.8736   47.0920   55.3886 H   0  0  0  0  0  0  0  0  0  0  0  0
   10.8617   47.5405   53.9361 H   0  0  0  0  0  0  0  0  0  0  0  0
   10.2856   45.8211   53.9034 H   0  0  0  0  0  0  0  0  0  0  0  0
    9.8003   47.9646   51.7908 H   0  0  0  0  0  0  0  0  0  0  0  0
   10.8521   46.4939   51.6622 H   0  0  0  0  0  0  0  0  0  0  0  0
    8.6459   46.2432   50.5124 H   0  0  0  0  0  0  0  0  0  0  0  0
    8.9343   45.0405   51.8368 H   0  0  0  0  0  0  0  0  0  0  0  0
    7.2136   47.5558   51.9922 H   0  0  0  0  0  0  0  0  0  0  0  0
    6.6498   45.8354   51.9560 H   0  0  0  0  0  0  0  0  0  0  0  0
  1  2  2  0
  2  3  1  0
  3  4  1  0
  4  5  1  0
  5  6  2  0
  6  7  1  0
  7  8  2  0
  8  9  1  0
  9 10  1  0
 10 11  2  0
 11 12  1  0
 12 13  2  0
 13 14  1  0
 14 15  2  0
 15 16  1  0
  2 17  1  0
 17 18  1  0
 18 19  1  0
 19 20  1  0
 20 21  1  0
 21 22  1  0
 22 23  1  0
 23 24  1  0
 16  5  1  0
 24 19  1  0
 16  8  1  0
 15 10  1  0
  3 25  1  0
  3 26  1  0
  9 27  1  0
 11 28  1  0
 12 29  1  0
 13 30  1  0
 14 31  1  0
 17 32  1  0
 18 33  1  0
 18 34  1  0
 19 35  1  0
 20 36  1  0
 20 37  1  0
 21 38  1  0
 21 39  1  0
 22 40  1  0
 22 41  1  0
 23 42  1  0
 23 43  1  0
 24 44  1  0
 24 45  1  0
M  END
>  <meeko>  (190) 
{"is_sidechain": false}

>  <CID>  (190) 
Z16226176

>  <pose_index>  (190) 
1

>  <docking_score>  (190) 
-9.411

>  <rmsd_to_best_selected>  (190) 
0.0

>  <MWT>  (190) 
343.45599999999973

>  <TPSA>  (190) 
75.08

>  <logP>  (190) 
2.999200000000002

>  <HBD>  (190) 
2

>  <HBA>  (190) 
5

>  <SMILES>  (190) 
[H]c1c([H])c([H])c2c(c1[H])n([H])c1nnc(SC([H])([H])C(=O)N([H])C([H])([H])C3([H])C([H])([H])C([H])([H])C([H])([H])C([H])([H])C3([H])[H])n21

$$$$
Z16226176_pose2
     RDKit          3D

 45 48  0  0  0  0  0  0  0  0999 V2000
    4.3876   48.8156   53.6894 O   0  0  0  0  0  0  0  0  0  0  0  0
    4.1745   47.6244   53.4691 C   0  0  0  0  0  0  0  0  0  0  0  0
    2.9031   47.1415   52.7916 C   0  0  0  0  0  0  0  0  0  0  0  0
    3.2733   46.4335   51.1606 S   0  0  0  0  0  0  0  0  0  0  0  0
    2.8480   44.7831   51.4097 C   0  0  0  0  0  0  0  0  0  0  0  0
    1.7214   44.3221   51.9311 N   0  0  0  0  0  0  0  0  0  0  0  0
    1.7769   42.9267   51.9431 N   0  0  0  0  0  0  0  0  0  0  0  0
    2.9283   42.6009   51.4176 C   0  0  0  0  0  0  0  0  0  0  0  0
    3.6623   41.5033   51.1193 N   0  0  0  0  0  0  0  0  0  0  0  0
    4.9174   41.9789   50.6904 C   0  0  0  0  0  0  0  0  0  0  0  0
    6.0236   41.2863   50.2631 C   0  0  0  0  0  0  0  0  0  0  0  0
    7.1203   42.0388   49.8183 C   0  0  0  0  0  0  0  0  0  0  0  0
    7.0842   43.4530   49.7852 C   0  0  0  0  0  0  0  0  0  0  0  0
    5.9507   44.1596   50.1907 C   0  0  0  0  0  0  0  0  0  0  0  0
    4.8967   43.3926   50.6239 C   0  0  0  0  0  0  0  0  0  0  0  0
    3.6418   43.7308   51.1016 N   0  0  0  0  0  0  0  0  0  0  0  0
    5.0614   46.6201   53.8047 N   0  0  0  0  0  0  0  0  0  0  0  0
    6.2677   46.9178   54.5482 C   0  0  0  0  0  0  0  0  0  0  0  0
    7.5056   47.1142   53.6616 C   0  0  0  0  0  0  0  0  0  0  0  0
    7.3862   46.3601   52.3279 C   0  0  0  0  0  0  0  0  0  0  0  0
    8.6099   46.5827   51.4415 C   0  0  0  0  0  0  0  0  0  0  0  0
    9.9054   46.2299   52.1673 C   0  0  0  0  0  0  0  0  0  0  0  0
   10.0284   46.9734   53.4946 C   0  0  0  0  0  0  0  0  0  0  0  0
    8.8106   46.7365   54.3838 C   0  0  0  0  0  0  0  0  0  0  0  0
    2.4290   46.3729   53.4196 H   0  0  0  0  0  0  0  0  0  0  0  0
    2.2257   47.9981   52.6596 H   0  0  0  0  0  0  0  0  0  0  0  0
    3.5497   40.5987   51.5530 H   0  0  0  0  0  0  0  0  0  0  0  0
    6.0485   40.1866   50.2694 H   0  0  0  0  0  0  0  0  0  0  0  0
    8.0305   41.5171   49.4873 H   0  0  0  0  0  0  0  0  0  0  0  0
    7.9670   44.0065   49.4327 H   0  0  0  0  0  0  0  0  0  0  0  0
    5.9047   45.2584   50.1652 H   0  0  0  0  0  0  0  0  0  0  0  0
    4.6526   45.6958   53.9320 H   0  0  0  0  0  0  0  0  0  0  0  0
    6.1024   47.8408   55.1234 H   0  0  0  0  0  0  0  0  0  0  0  0
    6.4693   46.0511   55.1949 H   0  0  0  0  0  0  0  0  0  0  0  0
    7.5504   48.1904   53.4386 H   0  0  0  0  0  0  0  0  0  0  0  0
    7.2864   45.2843   52.5343 H   0  0  0  0  0  0  0  0  0  0  0  0
    6.5030   46.7429   51.7955 H   0  0  0  0  0  0  0  0  0  0  0  0
    8.5202   45.9512   50.5453 H   0  0  0  0  0  0  0  0  0  0  0  0
    8.6479   47.6483   51.1714 H   0  0  0  0  0  0  0  0  0  0  0  0
    9.9217   45.1474   52.3620 H   0  0  0  0  0  0  0  0  0  0  0  0
   10.7493   46.5276   51.5275 H   0  0  0  0  0  0  0  0  0  0  0  0
   10.9284   46.6207   54.0197 H   0  0  0  0  0  0  0  0  0  0  0  0
   10.0959   48.0505   53.2817 H   0  0  0  0  0  0  0  0  0  0  0  0
    8.7713   45.6727   54.6608 H   0  0  0  0  0  0  0  0  0  0  0  0
    8.9068   47.3697   55.2782 H   0  0  0  0  0  0  0  0  0  0  0  0
  1  2  2  0
  2  3  1  0
  3  4  1  0
  4  5  1  0
  5  6  2  0
  6  7  1  0
  7  8  2  0
  8  9  1  0
  9 10  1  0
 10 11  2  0
 11 12  1  0
 12 13  2  0
 13 14  1  0
 14 15  2  0
 15 16  1  0
  2 17  1  0
 17 18  1  0
 18 19  1  0
 19 20  1  0
 20 21  1  0
 21 22  1  0
 22 23  1  0
 23 24  1  0
 16  5  1  0
 24 19  1  0
 16  8  1  0
 15 10  1  0
  3 25  1  0
  3 26  1  0
  9 27  1  0
 11 28  1  0
 12 29  1  0
 13 30  1  0
 14 31  1  0
 17 32  1  0
 18 33  1  0
 18 34  1  0
 19 35  1  0
 20 36  1  0
 20 37  1  0
 21 38  1  0
 21 39  1  0
 22 40  1  0
 22 41  1  0
 23 42  1  0
 23 43  1  0
 24 44  1  0
 24 45  1  0
M  END
>  <meeko>  (191) 
{"is_sidechain": false}

>  <CID>  (191) 
Z16226176

>  <pose_index>  (191) 
2

>  <docking_score>  (191) 
-9.359

>  <rmsd_to_best_selected>  (191) 
0.8385694277830994

>  <MWT>  (191) 
343.45599999999973

>  <TPSA>  (191) 
75.08

>  <logP>  (191) 
2.999200000000002

>  <HBD>  (191) 
2

>  <HBA>  (191) 
5

>  <SMILES>  (191) 
[H]c1c([H])c([H])c2c(c1[H])n([H])c1nnc(SC([H])([H])C(=O)N([H])C([H])([H])C3([H])C([H])([H])C([H])([H])C([H])([H])C([H])([H])C3([H])[H])n21

$$$$
Z16226176_pose5
     RDKit          3D

 45 48  0  0  0  0  0  0  0  0999 V2000
    3.6831   48.2706   53.8628 O   0  0  0  0  0  0  0  0  0  0  0  0
    4.0242   47.1106   53.6434 C   0  0  0  0  0  0  0  0  0  0  0  0
    3.0267   46.0346   53.2501 C   0  0  0  0  0  0  0  0  0  0  0  0
    2.3620   46.3490   51.5895 S   0  0  0  0  0  0  0  0  0  0  0  0
    2.2128   44.7447   50.9807 C   0  0  0  0  0  0  0  0  0  0  0  0
    1.0923   44.0600   50.8127 N   0  0  0  0  0  0  0  0  0  0  0  0
    1.4126   42.8065   50.2864 N   0  0  0  0  0  0  0  0  0  0  0  0
    2.7120   42.7900   50.1455 C   0  0  0  0  0  0  0  0  0  0  0  0
    3.7034   41.9649   49.7315 N   0  0  0  0  0  0  0  0  0  0  0  0
    4.9101   42.6274   50.0315 C   0  0  0  0  0  0  0  0  0  0  0  0
    6.2083   42.2371   49.8101 C   0  0  0  0  0  0  0  0  0  0  0  0
    7.2198   43.1476   50.1464 C   0  0  0  0  0  0  0  0  0  0  0  0
    6.9200   44.4279   50.6697 C   0  0  0  0  0  0  0  0  0  0  0  0
    5.6010   44.8398   50.8689 C   0  0  0  0  0  0  0  0  0  0  0  0
    4.6358   43.9225   50.5323 C   0  0  0  0  0  0  0  0  0  0  0  0
    3.2520   43.9681   50.5986 N   0  0  0  0  0  0  0  0  0  0  0  0
    5.3321   46.6748   53.7244 N   0  0  0  0  0  0  0  0  0  0  0  0
    6.3782   47.5622   54.1889 C   0  0  0  0  0  0  0  0  0  0  0  0
    7.7961   47.0397   53.9168 C   0  0  0  0  0  0  0  0  0  0  0  0
    8.3683   47.5810   52.5980 C   0  0  0  0  0  0  0  0  0  0  0  0
    9.7891   47.0769   52.3491 C   0  0  0  0  0  0  0  0  0  0  0  0
    9.8679   45.5542   52.4080 C   0  0  0  0  0  0  0  0  0  0  0  0
    9.2972   45.0101   53.7158 C   0  0  0  0  0  0  0  0  0  0  0  0
    7.8713   45.5037   53.9525 C   0  0  0  0  0  0  0  0  0  0  0  0
    3.5294   45.0562   53.2582 H   0  0  0  0  0  0  0  0  0  0  0  0
    2.1955   46.0433   53.9706 H   0  0  0  0  0  0  0  0  0  0  0  0
    3.6371   40.9591   49.6925 H   0  0  0  0  0  0  0  0  0  0  0  0
    6.4448   41.2500   49.3862 H   0  0  0  0  0  0  0  0  0  0  0  0
    8.2714   42.8601   50.0001 H   0  0  0  0  0  0  0  0  0  0  0  0
    7.7426   45.1121   50.9246 H   0  0  0  0  0  0  0  0  0  0  0  0
    5.3513   45.8336   51.2691 H   0  0  0  0  0  0  0  0  0  0  0  0
    5.4556   45.6789   53.8995 H   0  0  0  0  0  0  0  0  0  0  0  0
    6.2619   48.5315   53.6819 H   0  0  0  0  0  0  0  0  0  0  0  0
    6.2694   47.6440   55.2804 H   0  0  0  0  0  0  0  0  0  0  0  0
    8.4219   47.4210   54.7372 H   0  0  0  0  0  0  0  0  0  0  0  0
    7.7237   47.2539   51.7689 H   0  0  0  0  0  0  0  0  0  0  0  0
    8.4005   48.6786   52.6632 H   0  0  0  0  0  0  0  0  0  0  0  0
   10.1169   47.4123   51.3541 H   0  0  0  0  0  0  0  0  0  0  0  0
   10.4396   47.4839   53.1373 H   0  0  0  0  0  0  0  0  0  0  0  0
    9.2957   45.1347   51.5674 H   0  0  0  0  0  0  0  0  0  0  0  0
   10.9268   45.2627   52.3480 H   0  0  0  0  0  0  0  0  0  0  0  0
    9.2926   43.9109   53.6739 H   0  0  0  0  0  0  0  0  0  0  0  0
    9.9280   45.3679   54.5429 H   0  0  0  0  0  0  0  0  0  0  0  0
    7.2164   45.0950   53.1690 H   0  0  0  0  0  0  0  0  0  0  0  0
    7.5481   45.1642   54.9476 H   0  0  0  0  0  0  0  0  0  0  0  0
  1  2  2  0
  2  3  1  0
  3  4  1  0
  4  5  1  0
  5  6  2  0
  6  7  1  0
  7  8  2  0
  8  9  1  0
  9 10  1  0
 10 11  2  0
 11 12  1  0
 12 13  2  0
 13 14  1  0
 14 15  2  0
 15 16  1  0
  2 17  1  0
 17 18  1  0
 18 19  1  0
 19 20  1  0
 20 21  1  0
 21 22  1  0
 22 23  1  0
 23 24  1  0
 16  5  1  0
 24 19  1  0
 16  8  1  0
 15 10  1  0
  3 25  1  0
  3 26  1  0
  9 27  1  0
 11 28  1  0
 12 29  1  0
 13 30  1  0
 14 31  1  0
 17 32  1  0
 18 33  1  0
 18 34  1  0
 19 35  1  0
 20 36  1  0
 20 37  1  0
 21 38  1  0
 21 39  1  0
 22 40  1  0
 22 41  1  0
 23 42  1  0
 23 43  1  0
 24 44  1  0
 24 45  1  0
M  END
>  <meeko>  (192) 
{"is_sidechain": false}

>  <CID>  (192) 
Z16226176

>  <pose_index>  (192) 
5

>  <docking_score>  (192) 
-8.743

>  <rmsd_to_best_selected>  (192) 
1.5741974967676602

>  <MWT>  (192) 
343.45599999999973

>  <TPSA>  (192) 
75.08

>  <logP>  (192) 
2.999200000000002

>  <HBD>  (192) 
2

>  <HBA>  (192) 
5

>  <SMILES>  (192) 
[H]c1c([H])c([H])c2c(c1[H])n([H])c1nnc(SC([H])([H])C(=O)N([H])C([H])([H])C3([H])C([H])([H])C([H])([H])C([H])([H])C([H])([H])C3([H])[H])n21

$$$$
Z16226176_pose7
     RDKit          3D

 45 48  0  0  0  0  0  0  0  0999 V2000
    4.7989   48.7412   52.1010 O   0  0  0  0  0  0  0  0  0  0  0  0
    4.5397   47.5651   52.3496 C   0  0  0  0  0  0  0  0  0  0  0  0
    3.3756   46.8373   51.6984 C   0  0  0  0  0  0  0  0  0  0  0  0
    2.5727   45.7194   52.8821 S   0  0  0  0  0  0  0  0  0  0  0  0
    2.1089   44.4191   51.8521 C   0  0  0  0  0  0  0  0  0  0  0  0
    0.8751   44.0361   51.5623 N   0  0  0  0  0  0  0  0  0  0  0  0
    0.9428   42.9531   50.6831 N   0  0  0  0  0  0  0  0  0  0  0  0
    2.2131   42.7344   50.4684 C   0  0  0  0  0  0  0  0  0  0  0  0
    3.0224   41.8941   49.7791 N   0  0  0  0  0  0  0  0  0  0  0  0
    4.3364   42.2017   50.1838 C   0  0  0  0  0  0  0  0  0  0  0  0
    5.5315   41.6550   49.7853 C   0  0  0  0  0  0  0  0  0  0  0  0
    6.7036   42.2221   50.3082 C   0  0  0  0  0  0  0  0  0  0  0  0
    6.6617   43.3276   51.1897 C   0  0  0  0  0  0  0  0  0  0  0  0
    5.4503   43.9042   51.5749 C   0  0  0  0  0  0  0  0  0  0  0  0
    4.3217   43.3225   51.0484 C   0  0  0  0  0  0  0  0  0  0  0  0
    2.9753   43.6063   51.2046 N   0  0  0  0  0  0  0  0  0  0  0  0
    5.2769   46.7949   53.2281 N   0  0  0  0  0  0  0  0  0  0  0  0
    6.3517   47.3814   54.0010 C   0  0  0  0  0  0  0  0  0  0  0  0
    7.7070   46.6896   53.7953 C   0  0  0  0  0  0  0  0  0  0  0  0
    8.8412   47.4082   54.5441 C   0  0  0  0  0  0  0  0  0  0  0  0
   10.1803   46.6981   54.3556 C   0  0  0  0  0  0  0  0  0  0  0  0
   10.5189   46.5112   52.8794 C   0  0  0  0  0  0  0  0  0  0  0  0
    9.3940   45.8008   52.1300 C   0  0  0  0  0  0  0  0  0  0  0  0
    8.0603   46.5220   52.3077 C   0  0  0  0  0  0  0  0  0  0  0  0
    2.6412   47.5755   51.3440 H   0  0  0  0  0  0  0  0  0  0  0  0
    3.7579   46.2432   50.8552 H   0  0  0  0  0  0  0  0  0  0  0  0
    2.7592   40.9742   49.4589 H   0  0  0  0  0  0  0  0  0  0  0  0
    5.5684   40.8075   49.0850 H   0  0  0  0  0  0  0  0  0  0  0  0
    7.6780   41.7970   50.0259 H   0  0  0  0  0  0  0  0  0  0  0  0
    7.6033   43.7414   51.5798 H   0  0  0  0  0  0  0  0  0  0  0  0
    5.4020   44.7673   52.2551 H   0  0  0  0  0  0  0  0  0  0  0  0
    4.7847   46.0039   53.6403 H   0  0  0  0  0  0  0  0  0  0  0  0
    6.4528   48.4374   53.7100 H   0  0  0  0  0  0  0  0  0  0  0  0
    6.0872   47.2625   55.0621 H   0  0  0  0  0  0  0  0  0  0  0  0
    7.6015   45.6830   54.2261 H   0  0  0  0  0  0  0  0  0  0  0  0
    8.9257   48.4362   54.1617 H   0  0  0  0  0  0  0  0  0  0  0  0
    8.5995   47.4058   55.6172 H   0  0  0  0  0  0  0  0  0  0  0  0
   10.9714   47.2980   54.8293 H   0  0  0  0  0  0  0  0  0  0  0  0
   10.1082   45.7030   54.8188 H   0  0  0  0  0  0  0  0  0  0  0  0
   10.6839   47.4984   52.4232 H   0  0  0  0  0  0  0  0  0  0  0  0
   11.4242   45.8901   52.8101 H   0  0  0  0  0  0  0  0  0  0  0  0
    9.6428   45.7683   51.0590 H   0  0  0  0  0  0  0  0  0  0  0  0
    9.2942   44.7849   52.5400 H   0  0  0  0  0  0  0  0  0  0  0  0
    8.1259   47.5160   51.8412 H   0  0  0  0  0  0  0  0  0  0  0  0
    7.2740   45.9183   51.8310 H   0  0  0  0  0  0  0  0  0  0  0  0
  1  2  2  0
  2  3  1  0
  3  4  1  0
  4  5  1  0
  5  6  2  0
  6  7  1  0
  7  8  2  0
  8  9  1  0
  9 10  1  0
 10 11  2  0
 11 12  1  0
 12 13  2  0
 13 14  1  0
 14 15  2  0
 15 16  1  0
  2 17  1  0
 17 18  1  0
 18 19  1  0
 19 20  1  0
 20 21  1  0
 21 22  1  0
 22 23  1  0
 23 24  1  0
 16  5  1  0
 24 19  1  0
 16  8  1  0
 15 10  1  0
  3 25  1  0
  3 26  1  0
  9 27  1  0
 11 28  1  0
 12 29  1  0
 13 30  1  0
 14 31  1  0
 17 32  1  0
 18 33  1  0
 18 34  1  0
 19 35  1  0
 20 36  1  0
 20 37  1  0
 21 38  1  0
 21 39  1  0
 22 40  1  0
 22 41  1  0
 23 42  1  0
 23 43  1  0
 24 44  1  0
 24 45  1  0
M  END
>  <meeko>  (193) 
{"is_sidechain": false}

>  <CID>  (193) 
Z16226176

>  <pose_index>  (193) 
7

>  <docking_score>  (193) 
-8.606

>  <rmsd_to_best_selected>  (193) 
1.1018264858486364

>  <MWT>  (193) 
343.45599999999973

>  <TPSA>  (193) 
75.08

>  <logP>  (193) 
2.999200000000002

>  <HBD>  (193) 
2

>  <HBA>  (193) 
5

>  <SMILES>  (193) 
[H]c1c([H])c([H])c2c(c1[H])n([H])c1nnc(SC([H])([H])C(=O)N([H])C([H])([H])C3([H])C([H])([H])C([H])([H])C([H])([H])C([H])([H])C3([H])[H])n21

$$$$
Z16226176_pose10
     RDKit          3D

 45 48  0  0  0  0  0  0  0  0999 V2000
    4.5636   49.0253   51.7502 O   0  0  0  0  0  0  0  0  0  0  0  0
    4.2874   48.0063   52.3796 C   0  0  0  0  0  0  0  0  0  0  0  0
    2.9660   47.2794   52.2026 C   0  0  0  0  0  0  0  0  0  0  0  0
    2.9254   46.3938   50.6171 S   0  0  0  0  0  0  0  0  0  0  0  0
    2.6665   44.7750   51.1464 C   0  0  0  0  0  0  0  0  0  0  0  0
    1.5588   44.2811   51.6780 N   0  0  0  0  0  0  0  0  0  0  0  0
    1.7663   42.9268   51.9542 N   0  0  0  0  0  0  0  0  0  0  0  0
    2.9845   42.6563   51.5673 C   0  0  0  0  0  0  0  0  0  0  0  0
    3.8567   41.6210   51.5233 N   0  0  0  0  0  0  0  0  0  0  0  0
    5.0817   42.1629   51.0864 C   0  0  0  0  0  0  0  0  0  0  0  0
    6.2875   41.5461   50.8620 C   0  0  0  0  0  0  0  0  0  0  0  0
    7.3275   42.3348   50.3483 C   0  0  0  0  0  0  0  0  0  0  0  0
    7.1393   43.7050   50.0492 C   0  0  0  0  0  0  0  0  0  0  0  0
    5.9058   44.3286   50.2484 C   0  0  0  0  0  0  0  0  0  0  0  0
    4.9119   43.5287   50.7556 C   0  0  0  0  0  0  0  0  0  0  0  0
    3.5925   43.7907   51.0868 N   0  0  0  0  0  0  0  0  0  0  0  0
    5.1429   47.4233   53.2937 N   0  0  0  0  0  0  0  0  0  0  0  0
    6.3950   48.0610   53.6436 C   0  0  0  0  0  0  0  0  0  0  0  0
    7.5843   47.0918   53.7097 C   0  0  0  0  0  0  0  0  0  0  0  0
    8.7904   47.6014   52.9051 C   0  0  0  0  0  0  0  0  0  0  0  0
    9.9764   46.6434   52.9984 C   0  0  0  0  0  0  0  0  0  0  0  0
    9.5916   45.2248   52.5874 C   0  0  0  0  0  0  0  0  0  0  0  0
    8.3917   44.7142   53.3808 C   0  0  0  0  0  0  0  0  0  0  0  0
    7.2032   45.6670   53.2729 C   0  0  0  0  0  0  0  0  0  0  0  0
    2.8388   46.5572   53.0225 H   0  0  0  0  0  0  0  0  0  0  0  0
    2.1519   48.0190   52.2147 H   0  0  0  0  0  0  0  0  0  0  0  0
    3.8093   40.8034   52.1110 H   0  0  0  0  0  0  0  0  0  0  0  0
    6.4322   40.4769   51.0764 H   0  0  0  0  0  0  0  0  0  0  0  0
    8.3126   41.8774   50.1739 H   0  0  0  0  0  0  0  0  0  0  0  0
    7.9815   44.2906   49.6518 H   0  0  0  0  0  0  0  0  0  0  0  0
    5.7413   45.3908   50.0144 H   0  0  0  0  0  0  0  0  0  0  0  0
    4.7000   46.8466   54.0066 H   0  0  0  0  0  0  0  0  0  0  0  0
    6.6156   48.8304   52.8891 H   0  0  0  0  0  0  0  0  0  0  0  0
    6.2693   48.4846   54.6509 H   0  0  0  0  0  0  0  0  0  0  0  0
    7.8798   47.0464   54.7683 H   0  0  0  0  0  0  0  0  0  0  0  0
    8.4973   47.7045   51.8499 H   0  0  0  0  0  0  0  0  0  0  0  0
    9.0982   48.5705   53.3248 H   0  0  0  0  0  0  0  0  0  0  0  0
   10.7769   47.0018   52.3345 H   0  0  0  0  0  0  0  0  0  0  0  0
   10.3136   46.6170   54.0451 H   0  0  0  0  0  0  0  0  0  0  0  0
    9.3395   45.2196   51.5167 H   0  0  0  0  0  0  0  0  0  0  0  0
   10.4462   44.5637   52.7938 H   0  0  0  0  0  0  0  0  0  0  0  0
    8.0971   43.7294   52.9892 H   0  0  0  0  0  0  0  0  0  0  0  0
    8.6826   44.6437   54.4393 H   0  0  0  0  0  0  0  0  0  0  0  0
    6.8590   45.6929   52.2285 H   0  0  0  0  0  0  0  0  0  0  0  0
    6.4062   45.3027   53.9378 H   0  0  0  0  0  0  0  0  0  0  0  0
  1  2  2  0
  2  3  1  0
  3  4  1  0
  4  5  1  0
  5  6  2  0
  6  7  1  0
  7  8  2  0
  8  9  1  0
  9 10  1  0
 10 11  2  0
 11 12  1  0
 12 13  2  0
 13 14  1  0
 14 15  2  0
 15 16  1  0
  2 17  1  0
 17 18  1  0
 18 19  1  0
 19 20  1  0
 20 21  1  0
 21 22  1  0
 22 23  1  0
 23 24  1  0
 16  5  1  0
 24 19  1  0
 16  8  1  0
 15 10  1  0
  3 25  1  0
  3 26  1  0
  9 27  1  0
 11 28  1  0
 12 29  1  0
 13 30  1  0
 14 31  1  0
 17 32  1  0
 18 33  1  0
 18 34  1  0
 19 35  1  0
 20 36  1  0
 20 37  1  0
 21 38  1  0
 21 39  1  0
 22 40  1  0
 22 41  1  0
 23 42  1  0
 23 43  1  0
 24 44  1  0
 24 45  1  0
M  END
>  <meeko>  (194) 
{"is_sidechain": false}

>  <CID>  (194) 
Z16226176

>  <pose_index>  (194) 
10

>  <docking_score>  (194) 
-8.445

>  <rmsd_to_best_selected>  (194) 
1.2893338926946927

>  <MWT>  (194) 
343.45599999999973

>  <TPSA>  (194) 
75.08

>  <logP>  (194) 
2.999200000000002

>  <HBD>  (194) 
2

>  <HBA>  (194) 
5

>  <SMILES>  (194) 
[H]c1c([H])c([H])c2c(c1[H])n([H])c1nnc(SC([H])([H])C(=O)N([H])C([H])([H])C3([H])C([H])([H])C([H])([H])C([H])([H])C([H])([H])C3([H])[H])n21

$$$$
Z16226228_pose5
     RDKit          3D

 45 48  0  0  0  0  0  0  0  0999 V2000
    5.2044   44.7687   53.8726 O   0  0  0  0  0  0  0  0  0  0  0  0
    5.0926   45.9497   53.5530 C   0  0  0  0  0  0  0  0  0  0  0  0
    3.7993   46.5134   52.9880 C   0  0  0  0  0  0  0  0  0  0  0  0
    3.8067   46.4432   51.1723 S   0  0  0  0  0  0  0  0  0  0  0  0
    3.0127   44.9378   50.8987 C   0  0  0  0  0  0  0  0  0  0  0  0
    1.7060   44.7198   50.8879 N   0  0  0  0  0  0  0  0  0  0  0  0
    1.4843   43.3690   50.6064 N   0  0  0  0  0  0  0  0  0  0  0  0
    2.6655   42.8314   50.4460 C   0  0  0  0  0  0  0  0  0  0  0  0
    3.2329   41.6326   50.1725 N   0  0  0  0  0  0  0  0  0  0  0  0
    4.6227   41.8192   50.3076 C   0  0  0  0  0  0  0  0  0  0  0  0
    5.6538   40.9301   50.1273 C   0  0  0  0  0  0  0  0  0  0  0  0
    6.9601   41.4252   50.2505 C   0  0  0  0  0  0  0  0  0  0  0  0
    7.2109   42.7903   50.5297 C   0  0  0  0  0  0  0  0  0  0  0  0
    6.1667   43.7035   50.6883 C   0  0  0  0  0  0  0  0  0  0  0  0
    4.9010   43.1854   50.5591 C   0  0  0  0  0  0  0  0  0  0  0  0
    3.6472   43.7685   50.6521 N   0  0  0  0  0  0  0  0  0  0  0  0
    6.1159   46.8644   53.6694 N   0  0  0  0  0  0  0  0  0  0  0  0
    7.4259   46.5217   54.2045 C   0  0  0  0  0  0  0  0  0  0  0  0
    8.3155   45.9061   53.1145 C   0  0  0  0  0  0  0  0  0  0  0  0
    8.3303   46.6179   51.7642 C   0  0  0  0  0  0  0  0  0  0  0  0
    9.1029   47.9317   51.7015 C   0  0  0  0  0  0  0  0  0  0  0  0
    9.6153   48.4290   53.0511 C   0  0  0  0  0  0  0  0  0  0  0  0
    8.5532   48.8425   54.0790 C   0  0  0  0  0  0  0  0  0  0  0  0
    8.0258   47.7185   54.9673 C   0  0  0  0  0  0  0  0  0  0  0  0
    2.9520   45.9241   53.3686 H   0  0  0  0  0  0  0  0  0  0  0  0
    3.7051   47.5637   53.3008 H   0  0  0  0  0  0  0  0  0  0  0  0
    2.7914   40.7373   50.3236 H   0  0  0  0  0  0  0  0  0  0  0  0
    5.4627   39.8719   49.8955 H   0  0  0  0  0  0  0  0  0  0  0  0
    7.8094   40.7370   50.1274 H   0  0  0  0  0  0  0  0  0  0  0  0
    8.2500   43.1387   50.6237 H   0  0  0  0  0  0  0  0  0  0  0  0
    6.3457   44.7675   50.9024 H   0  0  0  0  0  0  0  0  0  0  0  0
    5.9586   47.8160   53.3395 H   0  0  0  0  0  0  0  0  0  0  0  0
    7.3364   45.7279   54.9607 H   0  0  0  0  0  0  0  0  0  0  0  0
    9.3474   45.8901   53.4951 H   0  0  0  0  0  0  0  0  0  0  0  0
    7.8862   44.9131   52.9152 H   0  0  0  0  0  0  0  0  0  0  0  0
    8.7753   45.9319   51.0285 H   0  0  0  0  0  0  0  0  0  0  0  0
    7.2824   46.8839   51.5612 H   0  0  0  0  0  0  0  0  0  0  0  0
    9.9677   47.7905   51.0364 H   0  0  0  0  0  0  0  0  0  0  0  0
    8.3982   48.6923   51.3343 H   0  0  0  0  0  0  0  0  0  0  0  0
   10.2160   47.6229   53.4976 H   0  0  0  0  0  0  0  0  0  0  0  0
   10.1762   49.3484   52.8276 H   0  0  0  0  0  0  0  0  0  0  0  0
    8.9936   49.6113   54.7309 H   0  0  0  0  0  0  0  0  0  0  0  0
    7.6903   49.1969   53.4960 H   0  0  0  0  0  0  0  0  0  0  0  0
    8.8589   47.3493   55.5833 H   0  0  0  0  0  0  0  0  0  0  0  0
    7.2065   48.1505   55.5608 H   0  0  0  0  0  0  0  0  0  0  0  0
  1  2  2  0
  2  3  1  0
  3  4  1  0
  4  5  1  0
  5  6  2  0
  6  7  1  0
  7  8  2  0
  8  9  1  0
  9 10  1  0
 10 11  2  0
 11 12  1  0
 12 13  2  0
 13 14  1  0
 14 15  2  0
 15 16  1  0
  2 17  1  0
 17 18  1  0
 18 19  1  0
 19 20  1  0
 20 21  1  0
 21 22  1  0
 22 23  1  0
 23 24  1  0
 16  5  1  0
 24 18  1  0
 16  8  1  0
 15 10  1  0
  3 25  1  0
  3 26  1  0
  9 27  1  0
 11 28  1  0
 12 29  1  0
 13 30  1  0
 14 31  1  0
 17 32  1  0
 18 33  1  0
 19 34  1  0
 19 35  1  0
 20 36  1  0
 20 37  1  0
 21 38  1  0
 21 39  1  0
 22 40  1  0
 22 41  1  0
 23 42  1  0
 23 43  1  0
 24 44  1  0
 24 45  1  0
M  END
>  <meeko>  (195) 
{"is_sidechain": false}

>  <CID>  (195) 
Z16226228

>  <pose_index>  (195) 
5

>  <docking_score>  (195) 
-6.792

>  <rmsd_to_best_selected>  (195) 
1.7484380236516723

>  <MWT>  (195) 
343.45599999999973

>  <TPSA>  (195) 
75.08

>  <logP>  (195) 
3.141700000000002

>  <HBD>  (195) 
2

>  <HBA>  (195) 
5

>  <SMILES>  (195) 
[H]c1c([H])c([H])c2c(c1[H])n([H])c1nnc(SC([H])([H])C(=O)N([H])C3([H])C([H])([H])C([H])([H])C([H])([H])C([H])([H])C([H])([H])C3([H])[H])n21

$$$$
Z16226228_pose1
     RDKit          3D

 45 48  0  0  0  0  0  0  0  0999 V2000
    4.8140   47.9970   54.5910 O   0  0  0  0  0  0  0  0  0  0  0  0
    4.5740   47.2960   53.6100 C   0  0  0  0  0  0  0  0  0  0  0  0
    3.1740   46.7950   53.2990 C   0  0  0  0  0  0  0  0  0  0  0  0
    3.0310   46.3370   51.5460 S   0  0  0  0  0  0  0  0  0  0  0  0
    2.7250   44.6460   51.6720 C   0  0  0  0  0  0  0  0  0  0  0  0
    1.6510   44.0700   52.1900 N   0  0  0  0  0  0  0  0  0  0  0  0
    1.7910   42.6840   52.0750 N   0  0  0  0  0  0  0  0  0  0  0  0
    2.9380   42.4820   51.4800 C   0  0  0  0  0  0  0  0  0  0  0  0
    3.7210   41.4640   51.0520 N   0  0  0  0  0  0  0  0  0  0  0  0
    4.9240   42.0550   50.6150 C   0  0  0  0  0  0  0  0  0  0  0  0
    6.0460   41.4750   50.0770 C   0  0  0  0  0  0  0  0  0  0  0  0
    7.0710   42.3320   49.6500 C   0  0  0  0  0  0  0  0  0  0  0  0
    6.9500   43.7380   49.7500 C   0  0  0  0  0  0  0  0  0  0  0  0
    5.8010   44.3330   50.2740 C   0  0  0  0  0  0  0  0  0  0  0  0
    4.8160   43.4660   50.6810 C   0  0  0  0  0  0  0  0  0  0  0  0
    3.5660   43.6790   51.2410 N   0  0  0  0  0  0  0  0  0  0  0  0
    5.5400   46.8980   52.7120 N   0  0  0  0  0  0  0  0  0  0  0  0
    6.9380   47.2900   52.8280 C   0  0  0  0  0  0  0  0  0  0  0  0
    7.5310   46.8030   54.1580 C   0  0  0  0  0  0  0  0  0  0  0  0
    8.7620   47.5460   54.6690 C   0  0  0  0  0  0  0  0  0  0  0  0
   10.1020   47.1650   54.0420 C   0  0  0  0  0  0  0  0  0  0  0  0
   10.0130   46.4840   52.6780 C   0  0  0  0  0  0  0  0  0  0  0  0
    9.2070   47.2160   51.5960 C   0  0  0  0  0  0  0  0  0  0  0  0
    7.7150   46.8940   51.5580 C   0  0  0  0  0  0  0  0  0  0  0  0
    2.9592   45.9137   53.9213 H   0  0  0  0  0  0  0  0  0  0  0  0
    2.4545   47.5986   53.5147 H   0  0  0  0  0  0  0  0  0  0  0  0
    3.6810   40.5180   51.4030 H   0  0  0  0  0  0  0  0  0  0  0  0
    6.1374   40.3827   49.9846 H   0  0  0  0  0  0  0  0  0  0  0  0
    7.9905   41.9008   49.2275 H   0  0  0  0  0  0  0  0  0  0  0  0
    7.7785   44.3756   49.4078 H   0  0  0  0  0  0  0  0  0  0  0  0
    5.6914   45.4245   50.3557 H   0  0  0  0  0  0  0  0  0  0  0  0
    5.2700   46.2780   51.9480 H   0  0  0  0  0  0  0  0  0  0  0  0
    7.0279   48.3852   52.8771 H   0  0  0  0  0  0  0  0  0  0  0  0
    6.7469   46.8891   54.9246 H   0  0  0  0  0  0  0  0  0  0  0  0
    7.8716   45.7750   53.9650 H   0  0  0  0  0  0  0  0  0  0  0  0
    8.6025   48.6193   54.4884 H   0  0  0  0  0  0  0  0  0  0  0  0
    8.8490   47.2669   55.7294 H   0  0  0  0  0  0  0  0  0  0  0  0
   10.6962   48.0833   53.9254 H   0  0  0  0  0  0  0  0  0  0  0  0
   10.5577   46.4290   54.7208 H   0  0  0  0  0  0  0  0  0  0  0  0
   11.0385   46.3562   52.3012 H   0  0  0  0  0  0  0  0  0  0  0  0
    9.4706   45.5441   52.8578 H   0  0  0  0  0  0  0  0  0  0  0  0
    9.3162   48.2974   51.7653 H   0  0  0  0  0  0  0  0  0  0  0  0
    9.6145   46.8749   50.6329 H   0  0  0  0  0  0  0  0  0  0  0  0
    7.2711   47.4274   50.7045 H   0  0  0  0  0  0  0  0  0  0  0  0
    7.6355   45.8001   51.4738 H   0  0  0  0  0  0  0  0  0  0  0  0
  1  2  2  0
  2  3  1  0
  3  4  1  0
  4  5  1  0
  5  6  2  0
  6  7  1  0
  7  8  2  0
  8  9  1  0
  9 10  1  0
 10 11  2  0
 11 12  1  0
 12 13  2  0
 13 14  1  0
 14 15  2  0
 15 16  1  0
  2 17  1  0
 17 18  1  0
 18 19  1  0
 19 20  1  0
 20 21  1  0
 21 22  1  0
 22 23  1  0
 23 24  1  0
 16  5  1  0
 24 18  1  0
 16  8  1  0
 15 10  1  0
  3 25  1  0
  3 26  1  0
  9 27  1  0
 11 28  1  0
 12 29  1  0
 13 30  1  0
 14 31  1  0
 17 32  1  0
 18 33  1  0
 19 34  1  0
 19 35  1  0
 20 36  1  0
 20 37  1  0
 21 38  1  0
 21 39  1  0
 22 40  1  0
 22 41  1  0
 23 42  1  0
 23 43  1  0
 24 44  1  0
 24 45  1  0
M  END
>  <meeko>  (196) 
{"is_sidechain": false}

>  <CID>  (196) 
Z16226228

>  <pose_index>  (196) 
1

>  <docking_score>  (196) 
-7.298

>  <rmsd_to_best_selected>  (196) 
0.0

>  <MWT>  (196) 
343.45599999999973

>  <TPSA>  (196) 
75.08

>  <logP>  (196) 
3.141700000000002

>  <HBD>  (196) 
2

>  <HBA>  (196) 
5

>  <SMILES>  (196) 
[H]c1c([H])c([H])c2c(c1[H])n([H])c1nnc(SC([H])([H])C(=O)N([H])C3([H])C([H])([H])C([H])([H])C([H])([H])C([H])([H])C([H])([H])C3([H])[H])n21

$$$$
Z16226228_pose3
     RDKit          3D

 45 48  0  0  0  0  0  0  0  0999 V2000
    4.8074   45.6443   54.4948 O   0  0  0  0  0  0  0  0  0  0  0  0
    4.6045   46.4166   53.5617 C   0  0  0  0  0  0  0  0  0  0  0  0
    3.2006   46.7676   53.0952 C   0  0  0  0  0  0  0  0  0  0  0  0
    3.0354   46.5043   51.3043 S   0  0  0  0  0  0  0  0  0  0  0  0
    2.6057   44.8359   51.2559 C   0  0  0  0  0  0  0  0  0  0  0  0
    1.4185   44.3137   51.5297 N   0  0  0  0  0  0  0  0  0  0  0  0
    1.4909   42.9308   51.3466 N   0  0  0  0  0  0  0  0  0  0  0  0
    2.7129   42.6775   50.9583 C   0  0  0  0  0  0  0  0  0  0  0  0
    3.4967   41.6280   50.6122 N   0  0  0  0  0  0  0  0  0  0  0  0
    4.7942   42.1511   50.4429 C   0  0  0  0  0  0  0  0  0  0  0  0
    5.9590   41.5199   50.0796 C   0  0  0  0  0  0  0  0  0  0  0  0
    7.0973   42.3203   49.9068 C   0  0  0  0  0  0  0  0  0  0  0  0
    7.0488   43.7239   50.0787 C   0  0  0  0  0  0  0  0  0  0  0  0
    5.8622   44.3735   50.4242 C   0  0  0  0  0  0  0  0  0  0  0  0
    4.7659   43.5604   50.5838 C   0  0  0  0  0  0  0  0  0  0  0  0
    3.4500   43.8345   50.9209 N   0  0  0  0  0  0  0  0  0  0  0  0
    5.6152   47.0283   52.8530 N   0  0  0  0  0  0  0  0  0  0  0  0
    7.0261   46.8331   53.1586 C   0  0  0  0  0  0  0  0  0  0  0  0
    7.8818   46.9670   51.8910 C   0  0  0  0  0  0  0  0  0  0  0  0
    9.1614   46.1361   51.8406 C   0  0  0  0  0  0  0  0  0  0  0  0
   10.3043   46.5847   52.7605 C   0  0  0  0  0  0  0  0  0  0  0  0
    9.9005   46.9122   54.1969 C   0  0  0  0  0  0  0  0  0  0  0  0
    8.9254   48.0824   54.3846 C   0  0  0  0  0  0  0  0  0  0  0  0
    7.4442   47.7141   54.3519 C   0  0  0  0  0  0  0  0  0  0  0  0
    2.4750   46.1308   53.6225 H   0  0  0  0  0  0  0  0  0  0  0  0
    3.0086   47.8279   53.3164 H   0  0  0  0  0  0  0  0  0  0  0  0
    3.3321   40.6697   50.8834 H   0  0  0  0  0  0  0  0  0  0  0  0
    5.9971   40.4308   49.9302 H   0  0  0  0  0  0  0  0  0  0  0  0
    8.0505   41.8457   49.6310 H   0  0  0  0  0  0  0  0  0  0  0  0
    7.9652   44.3157   49.9373 H   0  0  0  0  0  0  0  0  0  0  0  0
    5.8084   45.4639   50.5595 H   0  0  0  0  0  0  0  0  0  0  0  0
    5.3669   47.6217   52.0618 H   0  0  0  0  0  0  0  0  0  0  0  0
    7.2080   45.8027   53.4979 H   0  0  0  0  0  0  0  0  0  0  0  0
    7.2580   46.6720   51.0344 H   0  0  0  0  0  0  0  0  0  0  0  0
    8.2151   48.0152   51.8749 H   0  0  0  0  0  0  0  0  0  0  0  0
    8.9000   45.1026   52.1118 H   0  0  0  0  0  0  0  0  0  0  0  0
    9.5467   46.2558   50.8172 H   0  0  0  0  0  0  0  0  0  0  0  0
   11.0501   45.7768   52.7936 H   0  0  0  0  0  0  0  0  0  0  0  0
   10.6870   47.5230   52.3323 H   0  0  0  0  0  0  0  0  0  0  0  0
    9.4311   46.0142   54.6250 H   0  0  0  0  0  0  0  0  0  0  0  0
   10.8294   47.2246   54.6963 H   0  0  0  0  0  0  0  0  0  0  0  0
    9.1377   48.5477   55.3584 H   0  0  0  0  0  0  0  0  0  0  0  0
    9.0892   48.7529   53.5282 H   0  0  0  0  0  0  0  0  0  0  0  0
    7.2054   47.1716   55.2786 H   0  0  0  0  0  0  0  0  0  0  0  0
    6.8911   48.6594   54.2492 H   0  0  0  0  0  0  0  0  0  0  0  0
  1  2  2  0
  2  3  1  0
  3  4  1  0
  4  5  1  0
  5  6  2  0
  6  7  1  0
  7  8  2  0
  8  9  1  0
  9 10  1  0
 10 11  2  0
 11 12  1  0
 12 13  2  0
 13 14  1  0
 14 15  2  0
 15 16  1  0
  2 17  1  0
 17 18  1  0
 18 19  1  0
 19 20  1  0
 20 21  1  0
 21 22  1  0
 22 23  1  0
 23 24  1  0
 16  5  1  0
 24 18  1  0
 16  8  1  0
 15 10  1  0
  3 25  1  0
  3 26  1  0
  9 27  1  0
 11 28  1  0
 12 29  1  0
 13 30  1  0
 14 31  1  0
 17 32  1  0
 18 33  1  0
 19 34  1  0
 19 35  1  0
 20 36  1  0
 20 37  1  0
 21 38  1  0
 21 39  1  0
 22 40  1  0
 22 41  1  0
 23 42  1  0
 23 43  1  0
 24 44  1  0
 24 45  1  0
M  END
>  <meeko>  (197) 
{"is_sidechain": false}

>  <CID>  (197) 
Z16226228

>  <pose_index>  (197) 
3

>  <docking_score>  (197) 
-7.003

>  <rmsd_to_best_selected>  (197) 
1.0748121603178749

>  <MWT>  (197) 
343.45599999999973

>  <TPSA>  (197) 
75.08

>  <logP>  (197) 
3.141700000000002

>  <HBD>  (197) 
2

>  <HBA>  (197) 
5

>  <SMILES>  (197) 
[H]c1c([H])c([H])c2c(c1[H])n([H])c1nnc(SC([H])([H])C(=O)N([H])C3([H])C([H])([H])C([H])([H])C([H])([H])C([H])([H])C([H])([H])C3([H])[H])n21

$$$$
Z16226228_pose9
     RDKit          3D

 45 48  0  0  0  0  0  0  0  0999 V2000
    4.4876   47.7164   52.0647 O   0  0  0  0  0  0  0  0  0  0  0  0
    4.6555   46.7046   52.7414 C   0  0  0  0  0  0  0  0  0  0  0  0
    3.5386   45.7038   52.9886 C   0  0  0  0  0  0  0  0  0  0  0  0
    2.4404   45.5994   51.5450 S   0  0  0  0  0  0  0  0  0  0  0  0
    2.2859   43.8913   51.3733 C   0  0  0  0  0  0  0  0  0  0  0  0
    1.1957   43.1678   51.5841 N   0  0  0  0  0  0  0  0  0  0  0  0
    1.4916   41.8297   51.3094 N   0  0  0  0  0  0  0  0  0  0  0  0
    2.7432   41.8038   50.9319 C   0  0  0  0  0  0  0  0  0  0  0  0
    3.6903   40.9208   50.5339 N   0  0  0  0  0  0  0  0  0  0  0  0
    4.8880   41.6553   50.4293 C   0  0  0  0  0  0  0  0  0  0  0  0
    6.1431   41.2459   50.0506 C   0  0  0  0  0  0  0  0  0  0  0  0
    7.1394   42.2279   49.9589 C   0  0  0  0  0  0  0  0  0  0  0  0
    6.8636   43.5906   50.2255 C   0  0  0  0  0  0  0  0  0  0  0  0
    5.5830   44.0150   50.5862 C   0  0  0  0  0  0  0  0  0  0  0  0
    4.6314   43.0278   50.6654 C   0  0  0  0  0  0  0  0  0  0  0  0
    3.2841   43.0642   50.9900 N   0  0  0  0  0  0  0  0  0  0  0  0
    5.8562   46.3854   53.3383 N   0  0  0  0  0  0  0  0  0  0  0  0
    7.0491   47.2095   53.2050 C   0  0  0  0  0  0  0  0  0  0  0  0
    7.8979   47.1511   54.4836 C   0  0  0  0  0  0  0  0  0  0  0  0
    8.7001   48.4035   54.8277 C   0  0  0  0  0  0  0  0  0  0  0  0
    9.8504   48.7438   53.8786 C   0  0  0  0  0  0  0  0  0  0  0  0
   10.0718   47.7402   52.7488 C   0  0  0  0  0  0  0  0  0  0  0  0
    9.0261   47.7298   51.6255 C   0  0  0  0  0  0  0  0  0  0  0  0
    7.7846   46.8815   51.8916 C   0  0  0  0  0  0  0  0  0  0  0  0
    3.9769   44.7135   53.1815 H   0  0  0  0  0  0  0  0  0  0  0  0
    2.9511   46.0363   53.8571 H   0  0  0  0  0  0  0  0  0  0  0  0
    3.6788   39.9322   50.7360 H   0  0  0  0  0  0  0  0  0  0  0  0
    6.3580   40.1902   49.8282 H   0  0  0  0  0  0  0  0  0  0  0  0
    8.1597   41.9326   49.6730 H   0  0  0  0  0  0  0  0  0  0  0  0
    7.6742   44.3300   50.1470 H   0  0  0  0  0  0  0  0  0  0  0  0
    5.3517   45.0703   50.7932 H   0  0  0  0  0  0  0  0  0  0  0  0
    5.9034   45.5518   53.9226 H   0  0  0  0  0  0  0  0  0  0  0  0
    6.7752   48.2708   53.1120 H   0  0  0  0  0  0  0  0  0  0  0  0
    7.2200   46.9469   55.3255 H   0  0  0  0  0  0  0  0  0  0  0  0
    8.6475   46.3674   54.2993 H   0  0  0  0  0  0  0  0  0  0  0  0
    8.0058   49.2566   54.8349 H   0  0  0  0  0  0  0  0  0  0  0  0
    9.1693   48.1974   55.8011 H   0  0  0  0  0  0  0  0  0  0  0  0
    9.6420   49.7252   53.4277 H   0  0  0  0  0  0  0  0  0  0  0  0
   10.7665   48.7293   54.4874 H   0  0  0  0  0  0  0  0  0  0  0  0
   11.0487   47.9601   52.2935 H   0  0  0  0  0  0  0  0  0  0  0  0
    9.9997   46.7497   53.2218 H   0  0  0  0  0  0  0  0  0  0  0  0
    8.6988   48.7664   51.4574 H   0  0  0  0  0  0  0  0  0  0  0  0
    9.5220   47.2751   50.7552 H   0  0  0  0  0  0  0  0  0  0  0  0
    7.0820   47.0321   51.0588 H   0  0  0  0  0  0  0  0  0  0  0  0
    8.1327   45.8420   51.9821 H   0  0  0  0  0  0  0  0  0  0  0  0
  1  2  2  0
  2  3  1  0
  3  4  1  0
  4  5  1  0
  5  6  2  0
  6  7  1  0
  7  8  2  0
  8  9  1  0
  9 10  1  0
 10 11  2  0
 11 12  1  0
 12 13  2  0
 13 14  1  0
 14 15  2  0
 15 16  1  0
  2 17  1  0
 17 18  1  0
 18 19  1  0
 19 20  1  0
 20 21  1  0
 21 22  1  0
 22 23  1  0
 23 24  1  0
 16  5  1  0
 24 18  1  0
 16  8  1  0
 15 10  1  0
  3 25  1  0
  3 26  1  0
  9 27  1  0
 11 28  1  0
 12 29  1  0
 13 30  1  0
 14 31  1  0
 17 32  1  0
 18 33  1  0
 19 34  1  0
 19 35  1  0
 20 36  1  0
 20 37  1  0
 21 38  1  0
 21 39  1  0
 22 40  1  0
 22 41  1  0
 23 42  1  0
 23 43  1  0
 24 44  1  0
 24 45  1  0
M  END
>  <meeko>  (198) 
{"is_sidechain": false}

>  <CID>  (198) 
Z16226228

>  <pose_index>  (198) 
9

>  <docking_score>  (198) 
-6.345

>  <rmsd_to_best_selected>  (198) 
0.9497501632621502

>  <MWT>  (198) 
343.45599999999973

>  <TPSA>  (198) 
75.08

>  <logP>  (198) 
3.141700000000002

>  <HBD>  (198) 
2

>  <HBA>  (198) 
5

>  <SMILES>  (198) 
[H]c1c([H])c([H])c2c(c1[H])n([H])c1nnc(SC([H])([H])C(=O)N([H])C3([H])C([H])([H])C([H])([H])C([H])([H])C([H])([H])C([H])([H])C3([H])[H])n21

$$$$
Z16226228_pose10
     RDKit          3D

 45 48  0  0  0  0  0  0  0  0999 V2000
    5.1292   45.9647   55.2997 O   0  0  0  0  0  0  0  0  0  0  0  0
    4.6433   46.0296   54.1733 C   0  0  0  0  0  0  0  0  0  0  0  0
    3.1826   45.7084   53.9039 C   0  0  0  0  0  0  0  0  0  0  0  0
    2.9225   43.9115   53.8410 S   0  0  0  0  0  0  0  0  0  0  0  0
    2.7990   43.6577   52.1407 C   0  0  0  0  0  0  0  0  0  0  0  0
    1.6969   43.7218   51.4065 N   0  0  0  0  0  0  0  0  0  0  0  0
    2.0386   43.4743   50.0742 N   0  0  0  0  0  0  0  0  0  0  0  0
    3.3315   43.2857   50.0572 C   0  0  0  0  0  0  0  0  0  0  0  0
    4.3295   43.0055   49.1860 N   0  0  0  0  0  0  0  0  0  0  0  0
    5.4854   42.8074   49.9679 C   0  0  0  0  0  0  0  0  0  0  0  0
    6.7707   42.5135   49.5831 C   0  0  0  0  0  0  0  0  0  0  0  0
    7.7458   42.4548   50.5888 C   0  0  0  0  0  0  0  0  0  0  0  0
    7.4276   42.7071   51.9443 C   0  0  0  0  0  0  0  0  0  0  0  0
    6.1271   43.0307   52.3375 C   0  0  0  0  0  0  0  0  0  0  0  0
    5.1970   43.0809   51.3275 C   0  0  0  0  0  0  0  0  0  0  0  0
    3.8392   43.3582   51.3303 N   0  0  0  0  0  0  0  0  0  0  0  0
    5.3672   46.3920   53.0584 N   0  0  0  0  0  0  0  0  0  0  0  0
    6.7772   46.7542   53.1137 C   0  0  0  0  0  0  0  0  0  0  0  0
    7.4648   46.4718   51.7703 C   0  0  0  0  0  0  0  0  0  0  0  0
    8.9329   46.0573   51.8291 C   0  0  0  0  0  0  0  0  0  0  0  0
    9.9093   47.0985   52.4152 C   0  0  0  0  0  0  0  0  0  0  0  0
    9.3144   48.4820   52.6729 C   0  0  0  0  0  0  0  0  0  0  0  0
    8.3904   48.6147   53.8918 C   0  0  0  0  0  0  0  0  0  0  0  0
    6.9441   48.1811   53.6698 C   0  0  0  0  0  0  0  0  0  0  0  0
    2.5647   46.1350   54.7078 H   0  0  0  0  0  0  0  0  0  0  0  0
    2.8979   46.1416   52.9337 H   0  0  0  0  0  0  0  0  0  0  0  0
    4.2035   42.5637   48.2868 H   0  0  0  0  0  0  0  0  0  0  0  0
    7.0249   42.3316   48.5284 H   0  0  0  0  0  0  0  0  0  0  0  0
    8.7826   42.2067   50.3177 H   0  0  0  0  0  0  0  0  0  0  0  0
    8.2209   42.6472   52.7040 H   0  0  0  0  0  0  0  0  0  0  0  0
    5.8648   43.2322   53.3866 H   0  0  0  0  0  0  0  0  0  0  0  0
    4.9034   46.3788   52.1505 H   0  0  0  0  0  0  0  0  0  0  0  0
    7.3117   46.1132   53.8303 H   0  0  0  0  0  0  0  0  0  0  0  0
    6.9088   45.6626   51.2741 H   0  0  0  0  0  0  0  0  0  0  0  0
    7.4549   47.4308   51.2315 H   0  0  0  0  0  0  0  0  0  0  0  0
    9.0011   45.1485   52.4452 H   0  0  0  0  0  0  0  0  0  0  0  0
    9.2427   45.9177   50.7829 H   0  0  0  0  0  0  0  0  0  0  0  0
   10.2878   46.7083   53.3715 H   0  0  0  0  0  0  0  0  0  0  0  0
   10.6918   47.2416   51.6555 H   0  0  0  0  0  0  0  0  0  0  0  0
   10.1497   49.1848   52.8088 H   0  0  0  0  0  0  0  0  0  0  0  0
    8.6776   48.6919   51.8009 H   0  0  0  0  0  0  0  0  0  0  0  0
    8.8081   47.9994   54.7023 H   0  0  0  0  0  0  0  0  0  0  0  0
    8.3513   49.6888   54.1257 H   0  0  0  0  0  0  0  0  0  0  0  0
    6.4181   48.2365   54.6343 H   0  0  0  0  0  0  0  0  0  0  0  0
    6.5295   48.8606   52.9106 H   0  0  0  0  0  0  0  0  0  0  0  0
  1  2  2  0
  2  3  1  0
  3  4  1  0
  4  5  1  0
  5  6  2  0
  6  7  1  0
  7  8  2  0
  8  9  1  0
  9 10  1  0
 10 11  2  0
 11 12  1  0
 12 13  2  0
 13 14  1  0
 14 15  2  0
 15 16  1  0
  2 17  1  0
 17 18  1  0
 18 19  1  0
 19 20  1  0
 20 21  1  0
 21 22  1  0
 22 23  1  0
 23 24  1  0
 16  5  1  0
 24 18  1  0
 16  8  1  0
 15 10  1  0
  3 25  1  0
  3 26  1  0
  9 27  1  0
 11 28  1  0
 12 29  1  0
 13 30  1  0
 14 31  1  0
 17 32  1  0
 18 33  1  0
 19 34  1  0
 19 35  1  0
 20 36  1  0
 20 37  1  0
 21 38  1  0
 21 39  1  0
 22 40  1  0
 22 41  1  0
 23 42  1  0
 23 43  1  0
 24 44  1  0
 24 45  1  0
M  END
>  <meeko>  (199) 
{"is_sidechain": false}

>  <CID>  (199) 
Z16226228

>  <pose_index>  (199) 
10

>  <docking_score>  (199) 
-6.274

>  <rmsd_to_best_selected>  (199) 
1.9318155565145458

>  <MWT>  (199) 
343.45599999999973

>  <TPSA>  (199) 
75.08

>  <logP>  (199) 
3.141700000000002

>  <HBD>  (199) 
2

>  <HBA>  (199) 
5

>  <SMILES>  (199) 
[H]c1c([H])c([H])c2c(c1[H])n([H])c1nnc(SC([H])([H])C(=O)N([H])C3([H])C([H])([H])C([H])([H])C([H])([H])C([H])([H])C([H])([H])C3([H])[H])n21

$$$$
Z1627224447_pose6
     RDKit          3D

 35 37  0  0  0  0  0  0  0  0999 V2000
    3.3893   44.6886   52.5074 O   0  0  0  0  0  0  0  0  0  0  0  0
    4.2809   45.8266   52.4677 S   0  0  0  0  0  0  0  0  0  0  0  0
    4.6470   46.4707   51.2243 O   0  0  0  0  0  0  0  0  0  0  0  0
    5.6698   45.4098   53.3484 N   0  0  0  0  0  0  0  0  0  0  0  0
    6.9248   45.8943   52.8350 C   0  0  0  0  0  0  0  0  0  0  0  0
    7.2882   47.2233   53.0357 C   0  0  0  0  0  0  0  0  0  0  0  0
    8.4922   47.6848   52.5206 C   0  0  0  0  0  0  0  0  0  0  0  0
    9.2837   46.7931   51.8167 C   0  0  0  0  0  0  0  0  0  0  0  0
    8.9609   45.4974   51.6060 N   0  0  0  0  0  0  0  0  0  0  0  0
    7.7928   45.0431   52.1152 C   0  0  0  0  0  0  0  0  0  0  0  0
    7.4003   43.6853   51.9487 N   0  0  0  0  0  0  0  0  0  0  0  0
    6.9064   43.0494   50.7866 C   0  0  0  0  0  0  0  0  0  0  0  0
    7.8222   42.4597   49.8994 C   0  0  0  0  0  0  0  0  0  0  0  0
    7.3888   41.7518   48.7761 C   0  0  0  0  0  0  0  0  0  0  0  0
    6.0272   41.5964   48.5343 C   0  0  0  0  0  0  0  0  0  0  0  0
    5.1040   42.1377   49.4244 C   0  0  0  0  0  0  0  0  0  0  0  0
    5.5440   42.8461   50.5489 C   0  0  0  0  0  0  0  0  0  0  0  0
    3.4114   47.0520   53.3588 C   0  0  0  0  0  0  0  0  0  0  0  0
    3.6835   47.4830   54.6406 C   0  0  0  0  0  0  0  0  0  0  0  0
    2.7375   48.4340   54.9059 N   0  0  0  0  0  0  0  0  0  0  0  0
    1.9421   48.5508   53.7984 C   0  0  0  0  0  0  0  0  0  0  0  0
    2.3159   47.7332   52.8388 N   0  0  0  0  0  0  0  0  0  0  0  0
    5.5351   45.6648   54.3316 H   0  0  0  0  0  0  0  0  0  0  0  0
    6.6280   47.9010   53.5968 H   0  0  0  0  0  0  0  0  0  0  0  0
    8.8079   48.7283   52.6675 H   0  0  0  0  0  0  0  0  0  0  0  0
   10.2341   47.1618   51.4033 H   0  0  0  0  0  0  0  0  0  0  0  0
    8.1109   43.0998   52.4013 H   0  0  0  0  0  0  0  0  0  0  0  0
    8.9006   42.5572   50.0929 H   0  0  0  0  0  0  0  0  0  0  0  0
    8.1237   41.3172   48.0825 H   0  0  0  0  0  0  0  0  0  0  0  0
    5.6824   41.0488   47.6448 H   0  0  0  0  0  0  0  0  0  0  0  0
    4.0266   42.0085   49.2439 H   0  0  0  0  0  0  0  0  0  0  0  0
    4.8053   43.2495   51.2572 H   0  0  0  0  0  0  0  0  0  0  0  0
    4.4880   47.1364   55.3059 H   0  0  0  0  0  0  0  0  0  0  0  0
    2.6383   48.9605   55.7649 H   0  0  0  0  0  0  0  0  0  0  0  0
    1.0924   49.2451   53.7203 H   0  0  0  0  0  0  0  0  0  0  0  0
  1  2  2  0
  2  3  2  0
  2  4  1  0
  4  5  1  0
  5  6  2  0
  6  7  1  0
  7  8  2  0
  8  9  1  0
  9 10  2  0
 10 11  1  0
 11 12  1  0
 12 13  2  0
 13 14  1  0
 14 15  2  0
 15 16  1  0
 16 17  2  0
  2 18  1  0
 18 19  2  0
 19 20  1  0
 20 21  1  0
 21 22  2  0
 10  5  1  0
 17 12  1  0
 22 18  1  0
  4 23  1  0
  6 24  1  0
  7 25  1  0
  8 26  1  0
 11 27  1  0
 13 28  1  0
 14 29  1  0
 15 30  1  0
 16 31  1  0
 17 32  1  0
 19 33  1  0
 20 34  1  0
 21 35  1  0
M  END
>  <meeko>  (200) 
{"is_sidechain": false}

>  <CID>  (200) 
Z1627224447

>  <pose_index>  (200) 
6

>  <docking_score>  (200) 
-8.144

>  <rmsd_to_best_selected>  (200) 
1.4790670128071608

>  <MWT>  (200) 
315.3579999999998

>  <TPSA>  (200) 
99.77

>  <logP>  (200) 
2.3491

>  <HBD>  (200) 
3

>  <HBA>  (200) 
5

>  <SMILES>  (200) 
[H]c1nc(N([H])c2c([H])c([H])c([H])c([H])c2[H])c(N([H])S(=O)(=O)c2nc([H])n([H])c2[H])c([H])c1[H]

$$$$
Z1627224447_pose2
     RDKit          3D

 35 37  0  0  0  0  0  0  0  0999 V2000
    5.6411   45.6605   54.7898 O   0  0  0  0  0  0  0  0  0  0  0  0
    4.5207   45.6248   53.8749 S   0  0  0  0  0  0  0  0  0  0  0  0
    3.4919   44.6107   53.9641 O   0  0  0  0  0  0  0  0  0  0  0  0
    5.1519   45.6907   52.3017 N   0  0  0  0  0  0  0  0  0  0  0  0
    6.5383   46.0598   52.1820 C   0  0  0  0  0  0  0  0  0  0  0  0
    6.9060   47.4019   52.2378 C   0  0  0  0  0  0  0  0  0  0  0  0
    8.2435   47.7471   52.1025 C   0  0  0  0  0  0  0  0  0  0  0  0
    9.1633   46.7293   51.9101 C   0  0  0  0  0  0  0  0  0  0  0  0
    8.8396   45.4189   51.8526 N   0  0  0  0  0  0  0  0  0  0  0  0
    7.5383   45.0785   51.9935 C   0  0  0  0  0  0  0  0  0  0  0  0
    7.1298   43.7154   51.9647 N   0  0  0  0  0  0  0  0  0  0  0  0
    6.9075   42.8886   50.8392 C   0  0  0  0  0  0  0  0  0  0  0  0
    5.5867   42.6652   50.4170 C   0  0  0  0  0  0  0  0  0  0  0  0
    5.3104   41.9209   49.2677 C   0  0  0  0  0  0  0  0  0  0  0  0
    6.3549   41.4088   48.5023 C   0  0  0  0  0  0  0  0  0  0  0  0
    7.6705   41.6559   48.8818 C   0  0  0  0  0  0  0  0  0  0  0  0
    7.9426   42.4026   50.0335 C   0  0  0  0  0  0  0  0  0  0  0  0
    3.6890   47.1263   54.1984 C   0  0  0  0  0  0  0  0  0  0  0  0
    2.7264   47.7178   53.4075 C   0  0  0  0  0  0  0  0  0  0  0  0
    2.3822   48.8670   54.0614 N   0  0  0  0  0  0  0  0  0  0  0  0
    3.1289   48.9339   55.2069 C   0  0  0  0  0  0  0  0  0  0  0  0
    3.9313   47.8986   55.3290 N   0  0  0  0  0  0  0  0  0  0  0  0
    4.9478   44.8086   51.8202 H   0  0  0  0  0  0  0  0  0  0  0  0
    6.1439   48.1808   52.3877 H   0  0  0  0  0  0  0  0  0  0  0  0
    8.5639   48.7984   52.1468 H   0  0  0  0  0  0  0  0  0  0  0  0
   10.2222   47.0050   51.7971 H   0  0  0  0  0  0  0  0  0  0  0  0
    7.6748   43.2134   52.6743 H   0  0  0  0  0  0  0  0  0  0  0  0
    4.7547   43.0841   51.0020 H   0  0  0  0  0  0  0  0  0  0  0  0
    4.2679   41.7393   48.9674 H   0  0  0  0  0  0  0  0  0  0  0  0
    6.1411   40.8125   47.6030 H   0  0  0  0  0  0  0  0  0  0  0  0
    8.4993   41.2630   48.2745 H   0  0  0  0  0  0  0  0  0  0  0  0
    8.9868   42.6108   50.3096 H   0  0  0  0  0  0  0  0  0  0  0  0
    2.3225   47.3446   52.4548 H   0  0  0  0  0  0  0  0  0  0  0  0
    1.7013   49.5520   53.7581 H   0  0  0  0  0  0  0  0  0  0  0  0
    3.0656   49.7542   55.9371 H   0  0  0  0  0  0  0  0  0  0  0  0
  1  2  2  0
  2  3  2  0
  2  4  1  0
  4  5  1  0
  5  6  2  0
  6  7  1  0
  7  8  2  0
  8  9  1  0
  9 10  2  0
 10 11  1  0
 11 12  1  0
 12 13  2  0
 13 14  1  0
 14 15  2  0
 15 16  1  0
 16 17  2  0
  2 18  1  0
 18 19  2  0
 19 20  1  0
 20 21  1  0
 21 22  2  0
 10  5  1  0
 17 12  1  0
 22 18  1  0
  4 23  1  0
  6 24  1  0
  7 25  1  0
  8 26  1  0
 11 27  1  0
 13 28  1  0
 14 29  1  0
 15 30  1  0
 16 31  1  0
 17 32  1  0
 19 33  1  0
 20 34  1  0
 21 35  1  0
M  END
>  <meeko>  (201) 
{"is_sidechain": false}

>  <CID>  (201) 
Z1627224447

>  <pose_index>  (201) 
2

>  <docking_score>  (201) 
-8.605

>  <rmsd_to_best_selected>  (201) 
0.0

>  <MWT>  (201) 
315.3579999999998

>  <TPSA>  (201) 
99.77

>  <logP>  (201) 
2.3491

>  <HBD>  (201) 
3

>  <HBA>  (201) 
5

>  <SMILES>  (201) 
[H]c1nc(N([H])c2c([H])c([H])c([H])c([H])c2[H])c(N([H])S(=O)(=O)c2nc([H])n([H])c2[H])c([H])c1[H]

$$$$
Z1627224447_pose3
     RDKit          3D

 35 37  0  0  0  0  0  0  0  0999 V2000
    5.6556   45.6213   54.7828 O   0  0  0  0  0  0  0  0  0  0  0  0
    4.5425   45.5919   53.8591 S   0  0  0  0  0  0  0  0  0  0  0  0
    3.5157   44.5742   53.9300 O   0  0  0  0  0  0  0  0  0  0  0  0
    5.1862   45.6752   52.2922 N   0  0  0  0  0  0  0  0  0  0  0  0
    6.5604   46.0899   52.1838 C   0  0  0  0  0  0  0  0  0  0  0  0
    6.8882   47.4390   52.2905 C   0  0  0  0  0  0  0  0  0  0  0  0
    8.2155   47.8292   52.1659 C   0  0  0  0  0  0  0  0  0  0  0  0
    9.1635   46.8477   51.9331 C   0  0  0  0  0  0  0  0  0  0  0  0
    8.8789   45.5308   51.8271 N   0  0  0  0  0  0  0  0  0  0  0  0
    7.5886   45.1472   51.9570 C   0  0  0  0  0  0  0  0  0  0  0  0
    7.2210   43.7739   51.8766 N   0  0  0  0  0  0  0  0  0  0  0  0
    6.8906   43.0195   50.7280 C   0  0  0  0  0  0  0  0  0  0  0  0
    7.8989   42.2726   50.0986 C   0  0  0  0  0  0  0  0  0  0  0  0
    7.6162   41.4472   49.0074 C   0  0  0  0  0  0  0  0  0  0  0  0
    6.3089   41.3333   48.5426 C   0  0  0  0  0  0  0  0  0  0  0  0
    5.2882   42.0332   49.1790 C   0  0  0  0  0  0  0  0  0  0  0  0
    5.5780   42.8580   50.2728 C   0  0  0  0  0  0  0  0  0  0  0  0
    3.7042   47.0883   54.1906 C   0  0  0  0  0  0  0  0  0  0  0  0
    2.6832   47.6387   53.4454 C   0  0  0  0  0  0  0  0  0  0  0  0
    2.3597   48.8018   54.0876 N   0  0  0  0  0  0  0  0  0  0  0  0
    3.1736   48.9152   55.1810 C   0  0  0  0  0  0  0  0  0  0  0  0
    4.0024   47.8984   55.2822 N   0  0  0  0  0  0  0  0  0  0  0  0
    5.0157   44.7869   51.8103 H   0  0  0  0  0  0  0  0  0  0  0  0
    6.1037   48.1885   52.4717 H   0  0  0  0  0  0  0  0  0  0  0  0
    8.5047   48.8872   52.2498 H   0  0  0  0  0  0  0  0  0  0  0  0
   10.2133   47.1589   51.8279 H   0  0  0  0  0  0  0  0  0  0  0  0
    7.8619   43.2454   52.4787 H   0  0  0  0  0  0  0  0  0  0  0  0
    8.9316   42.3384   50.4718 H   0  0  0  0  0  0  0  0  0  0  0  0
    8.4259   40.8879   48.5159 H   0  0  0  0  0  0  0  0  0  0  0  0
    6.0839   40.6932   47.6767 H   0  0  0  0  0  0  0  0  0  0  0  0
    4.2520   41.9383   48.8222 H   0  0  0  0  0  0  0  0  0  0  0  0
    4.7597   43.3878   50.7825 H   0  0  0  0  0  0  0  0  0  0  0  0
    2.2271   47.2303   52.5315 H   0  0  0  0  0  0  0  0  0  0  0  0
    1.6472   49.4655   53.8083 H   0  0  0  0  0  0  0  0  0  0  0  0
    3.1394   49.7553   55.8903 H   0  0  0  0  0  0  0  0  0  0  0  0
  1  2  2  0
  2  3  2  0
  2  4  1  0
  4  5  1  0
  5  6  2  0
  6  7  1  0
  7  8  2  0
  8  9  1  0
  9 10  2  0
 10 11  1  0
 11 12  1  0
 12 13  2  0
 13 14  1  0
 14 15  2  0
 15 16  1  0
 16 17  2  0
  2 18  1  0
 18 19  2  0
 19 20  1  0
 20 21  1  0
 21 22  2  0
 10  5  1  0
 17 12  1  0
 22 18  1  0
  4 23  1  0
  6 24  1  0
  7 25  1  0
  8 26  1  0
 11 27  1  0
 13 28  1  0
 14 29  1  0
 15 30  1  0
 16 31  1  0
 17 32  1  0
 19 33  1  0
 20 34  1  0
 21 35  1  0
M  END
>  <meeko>  (202) 
{"is_sidechain": false}

>  <CID>  (202) 
Z1627224447

>  <pose_index>  (202) 
3

>  <docking_score>  (202) 
-8.54

>  <rmsd_to_best_selected>  (202) 
0.17149029486828204

>  <MWT>  (202) 
315.3579999999998

>  <TPSA>  (202) 
99.77

>  <logP>  (202) 
2.3491

>  <HBD>  (202) 
3

>  <HBA>  (202) 
5

>  <SMILES>  (202) 
[H]c1nc(N([H])c2c([H])c([H])c([H])c([H])c2[H])c(N([H])S(=O)(=O)c2nc([H])n([H])c2[H])c([H])c1[H]

$$$$
Z1627224447_pose4
     RDKit          3D

 35 37  0  0  0  0  0  0  0  0999 V2000
    3.5082   44.3494   53.3059 O   0  0  0  0  0  0  0  0  0  0  0  0
    4.3434   45.4253   52.8161 S   0  0  0  0  0  0  0  0  0  0  0  0
    4.5523   45.6498   51.4007 O   0  0  0  0  0  0  0  0  0  0  0  0
    5.8312   45.3148   53.6229 N   0  0  0  0  0  0  0  0  0  0  0  0
    6.9722   45.8730   52.9448 C   0  0  0  0  0  0  0  0  0  0  0  0
    7.2436   47.2350   53.0530 C   0  0  0  0  0  0  0  0  0  0  0  0
    8.3360   47.7658   52.3786 C   0  0  0  0  0  0  0  0  0  0  0  0
    9.1116   46.9083   51.6171 C   0  0  0  0  0  0  0  0  0  0  0  0
    8.8754   45.5829   51.4934 N   0  0  0  0  0  0  0  0  0  0  0  0
    7.8179   45.0618   52.1550 C   0  0  0  0  0  0  0  0  0  0  0  0
    7.5237   43.6705   52.0861 N   0  0  0  0  0  0  0  0  0  0  0  0
    6.9987   42.9374   50.9982 C   0  0  0  0  0  0  0  0  0  0  0  0
    5.7365   42.3369   51.1353 C   0  0  0  0  0  0  0  0  0  0  0  0
    5.1340   41.6651   50.0688 C   0  0  0  0  0  0  0  0  0  0  0  0
    5.7741   41.6056   48.8340 C   0  0  0  0  0  0  0  0  0  0  0  0
    7.0066   42.2293   48.6669 C   0  0  0  0  0  0  0  0  0  0  0  0
    7.6057   42.9020   49.7383 C   0  0  0  0  0  0  0  0  0  0  0  0
    3.5193   46.8606   53.3739 C   0  0  0  0  0  0  0  0  0  0  0  0
    3.9639   48.1606   53.2532 C   0  0  0  0  0  0  0  0  0  0  0  0
    2.9946   48.9256   53.8385 N   0  0  0  0  0  0  0  0  0  0  0  0
    2.0107   48.0844   54.2820 C   0  0  0  0  0  0  0  0  0  0  0  0
    2.2879   46.8252   54.0194 N   0  0  0  0  0  0  0  0  0  0  0  0
    5.7290   45.6892   54.5715 H   0  0  0  0  0  0  0  0  0  0  0  0
    6.5999   47.8831   53.6659 H   0  0  0  0  0  0  0  0  0  0  0  0
    8.5777   48.8367   52.4477 H   0  0  0  0  0  0  0  0  0  0  0  0
    9.9731   47.3314   51.0797 H   0  0  0  0  0  0  0  0  0  0  0  0
    8.3100   43.1665   52.5110 H   0  0  0  0  0  0  0  0  0  0  0  0
    5.2125   42.3966   52.1006 H   0  0  0  0  0  0  0  0  0  0  0  0
    4.1545   41.1835   50.2047 H   0  0  0  0  0  0  0  0  0  0  0  0
    5.3080   41.0682   47.9950 H   0  0  0  0  0  0  0  0  0  0  0  0
    7.5114   42.1938   47.6902 H   0  0  0  0  0  0  0  0  0  0  0  0
    8.5692   43.4109   49.5873 H   0  0  0  0  0  0  0  0  0  0  0  0
    4.8977   48.5070   52.7862 H   0  0  0  0  0  0  0  0  0  0  0  0
    2.9979   49.9336   53.9328 H   0  0  0  0  0  0  0  0  0  0  0  0
    1.0981   48.4203   54.7962 H   0  0  0  0  0  0  0  0  0  0  0  0
  1  2  2  0
  2  3  2  0
  2  4  1  0
  4  5  1  0
  5  6  2  0
  6  7  1  0
  7  8  2  0
  8  9  1  0
  9 10  2  0
 10 11  1  0
 11 12  1  0
 12 13  2  0
 13 14  1  0
 14 15  2  0
 15 16  1  0
 16 17  2  0
  2 18  1  0
 18 19  2  0
 19 20  1  0
 20 21  1  0
 21 22  2  0
 10  5  1  0
 17 12  1  0
 22 18  1  0
  4 23  1  0
  6 24  1  0
  7 25  1  0
  8 26  1  0
 11 27  1  0
 13 28  1  0
 14 29  1  0
 15 30  1  0
 16 31  1  0
 17 32  1  0
 19 33  1  0
 20 34  1  0
 21 35  1  0
M  END
>  <meeko>  (203) 
{"is_sidechain": false}

>  <CID>  (203) 
Z1627224447

>  <pose_index>  (203) 
4

>  <docking_score>  (203) 
-8.376

>  <rmsd_to_best_selected>  (203) 
1.4208308171851836

>  <MWT>  (203) 
315.3579999999998

>  <TPSA>  (203) 
99.77

>  <logP>  (203) 
2.3491

>  <HBD>  (203) 
3

>  <HBA>  (203) 
5

>  <SMILES>  (203) 
[H]c1nc(N([H])c2c([H])c([H])c([H])c([H])c2[H])c(N([H])S(=O)(=O)c2nc([H])n([H])c2[H])c([H])c1[H]

$$$$
Z1627224447_pose5
     RDKit          3D

 35 37  0  0  0  0  0  0  0  0999 V2000
    5.8908   46.6512   54.7729 O   0  0  0  0  0  0  0  0  0  0  0  0
    5.0846   46.0282   53.7455 S   0  0  0  0  0  0  0  0  0  0  0  0
    4.6995   44.6338   53.8149 O   0  0  0  0  0  0  0  0  0  0  0  0
    5.8212   46.3641   52.2547 N   0  0  0  0  0  0  0  0  0  0  0  0
    7.2615   46.3675   52.2368 C   0  0  0  0  0  0  0  0  0  0  0  0
    7.9519   47.5765   52.2828 C   0  0  0  0  0  0  0  0  0  0  0  0
    9.3399   47.5677   52.2466 C   0  0  0  0  0  0  0  0  0  0  0  0
    9.9828   46.3447   52.1600 C   0  0  0  0  0  0  0  0  0  0  0  0
    9.3418   45.1553   52.1150 N   0  0  0  0  0  0  0  0  0  0  0  0
    7.9900   45.1598   52.1594 C   0  0  0  0  0  0  0  0  0  0  0  0
    7.2532   43.9431   52.1384 N   0  0  0  0  0  0  0  0  0  0  0  0
    6.6398   43.3063   51.0345 C   0  0  0  0  0  0  0  0  0  0  0  0
    7.3684   43.1749   49.8410 C   0  0  0  0  0  0  0  0  0  0  0  0
    6.8439   42.4880   48.7438 C   0  0  0  0  0  0  0  0  0  0  0  0
    5.5877   41.8951   48.8307 C   0  0  0  0  0  0  0  0  0  0  0  0
    4.8675   41.9782   50.0189 C   0  0  0  0  0  0  0  0  0  0  0  0
    5.3983   42.6674   51.1152 C   0  0  0  0  0  0  0  0  0  0  0  0
    3.5774   46.9062   53.8259 C   0  0  0  0  0  0  0  0  0  0  0  0
    2.3720   46.5191   53.2803 C   0  0  0  0  0  0  0  0  0  0  0  0
    1.4985   47.5229   53.5940 N   0  0  0  0  0  0  0  0  0  0  0  0
    2.1859   48.4651   54.3090 C   0  0  0  0  0  0  0  0  0  0  0  0
    3.4482   48.1312   54.4734 N   0  0  0  0  0  0  0  0  0  0  0  0
    5.4319   45.7436   51.5387 H   0  0  0  0  0  0  0  0  0  0  0  0
    7.4034   48.5279   52.3472 H   0  0  0  0  0  0  0  0  0  0  0  0
    9.9126   48.5061   52.2855 H   0  0  0  0  0  0  0  0  0  0  0  0
   11.0823   46.3405   52.1258 H   0  0  0  0  0  0  0  0  0  0  0  0
    7.7671   43.2580   52.7041 H   0  0  0  0  0  0  0  0  0  0  0  0
    8.3711   43.6216   49.7689 H   0  0  0  0  0  0  0  0  0  0  0  0
    7.4234   42.4155   47.8116 H   0  0  0  0  0  0  0  0  0  0  0  0
    5.1662   41.3636   47.9648 H   0  0  0  0  0  0  0  0  0  0  0  0
    3.8793   41.5013   50.0964 H   0  0  0  0  0  0  0  0  0  0  0  0
    4.8297   42.7071   52.0560 H   0  0  0  0  0  0  0  0  0  0  0  0
    2.1589   45.6002   52.7144 H   0  0  0  0  0  0  0  0  0  0  0  0
    0.5182   47.5678   53.3443 H   0  0  0  0  0  0  0  0  0  0  0  0
    1.7375   49.3905   54.6995 H   0  0  0  0  0  0  0  0  0  0  0  0
  1  2  2  0
  2  3  2  0
  2  4  1  0
  4  5  1  0
  5  6  2  0
  6  7  1  0
  7  8  2  0
  8  9  1  0
  9 10  2  0
 10 11  1  0
 11 12  1  0
 12 13  2  0
 13 14  1  0
 14 15  2  0
 15 16  1  0
 16 17  2  0
  2 18  1  0
 18 19  2  0
 19 20  1  0
 20 21  1  0
 21 22  2  0
 10  5  1  0
 17 12  1  0
 22 18  1  0
  4 23  1  0
  6 24  1  0
  7 25  1  0
  8 26  1  0
 11 27  1  0
 13 28  1  0
 14 29  1  0
 15 30  1  0
 16 31  1  0
 17 32  1  0
 19 33  1  0
 20 34  1  0
 21 35  1  0
M  END
>  <meeko>  (204) 
{"is_sidechain": false}

>  <CID>  (204) 
Z1627224447

>  <pose_index>  (204) 
5

>  <docking_score>  (204) 
-8.178

>  <rmsd_to_best_selected>  (204) 
1.1610562307916894

>  <MWT>  (204) 
315.3579999999998

>  <TPSA>  (204) 
99.77

>  <logP>  (204) 
2.3491

>  <HBD>  (204) 
3

>  <HBA>  (204) 
5

>  <SMILES>  (204) 
[H]c1nc(N([H])c2c([H])c([H])c([H])c([H])c2[H])c(N([H])S(=O)(=O)c2nc([H])n([H])c2[H])c([H])c1[H]

$$$$
Z1646104587_pose5
     RDKit          3D

 49 52  0  0  0  0  0  0  0  0999 V2000
    6.7271   45.2805   55.0476 C   0  0  0  0  0  0  0  0  0  0  0  0
    6.0106   46.3478   54.4003 N   0  0  0  0  0  0  0  0  0  0  0  0
    4.6501   46.5611   54.4562 C   0  0  0  0  0  0  0  0  0  0  0  0
    3.6669   45.7391   55.2108 C   0  0  0  0  0  0  0  0  0  0  0  0
    3.1165   44.7157   54.3687 O   0  0  0  0  0  0  0  0  0  0  0  0
    1.7806   44.7470   54.0534 C   0  0  0  0  0  0  0  0  0  0  0  0
    0.8504   45.5629   54.7106 C   0  0  0  0  0  0  0  0  0  0  0  0
   -0.4991   45.5400   54.3432 C   0  0  0  0  0  0  0  0  0  0  0  0
   -0.9355   44.7066   53.3204 C   0  0  0  0  0  0  0  0  0  0  0  0
   -0.0198   43.8920   52.6557 C   0  0  0  0  0  0  0  0  0  0  0  0
    1.3413   43.9102   53.0065 C   0  0  0  0  0  0  0  0  0  0  0  0
    2.2399   42.9719   52.2558 C   0  0  0  0  0  0  0  0  0  0  0  0
    1.8462   41.8293   52.0484 O   0  0  0  0  0  0  0  0  0  0  0  0
    3.4538   43.4963   51.8537 N   0  0  0  0  0  0  0  0  0  0  0  0
    4.5060   42.8449   51.1832 C   0  0  0  0  0  0  0  0  0  0  0  0
    4.2522   41.5539   50.7033 C   0  0  0  0  0  0  0  0  0  0  0  0
    5.2397   40.8413   50.0165 C   0  0  0  0  0  0  0  0  0  0  0  0
    6.4894   41.4151   49.8024 C   0  0  0  0  0  0  0  0  0  0  0  0
    6.7507   42.6979   50.2784 C   0  0  0  0  0  0  0  0  0  0  0  0
    5.7632   43.4105   50.9653 C   0  0  0  0  0  0  0  0  0  0  0  0
    4.3556   47.6158   53.7252 N   0  0  0  0  0  0  0  0  0  0  0  0
    5.5199   48.1165   53.2128 N   0  0  0  0  0  0  0  0  0  0  0  0
    6.5176   47.3655   53.6332 C   0  0  0  0  0  0  0  0  0  0  0  0
    7.9835   47.7114   53.2378 C   0  0  0  0  0  0  0  0  0  0  0  0
    8.7212   46.6935   52.3431 C   0  0  0  0  0  0  0  0  0  0  0  0
   10.0049   47.0437   53.1271 C   0  0  0  0  0  0  0  0  0  0  0  0
    9.0959   47.5060   54.2869 C   0  0  0  0  0  0  0  0  0  0  0  0
    7.5532   45.7002   55.6404 H   0  0  0  0  0  0  0  0  0  0  0  0
    6.0437   44.7289   55.7099 H   0  0  0  0  0  0  0  0  0  0  0  0
    7.1321   44.5967   54.2871 H   0  0  0  0  0  0  0  0  0  0  0  0
    4.1702   45.2700   56.0691 H   0  0  0  0  0  0  0  0  0  0  0  0
    2.8515   46.3902   55.5591 H   0  0  0  0  0  0  0  0  0  0  0  0
    1.1839   46.2267   55.5219 H   0  0  0  0  0  0  0  0  0  0  0  0
   -1.2193   46.1856   54.8671 H   0  0  0  0  0  0  0  0  0  0  0  0
   -1.9981   44.6897   53.0366 H   0  0  0  0  0  0  0  0  0  0  0  0
   -0.3657   43.2287   51.8493 H   0  0  0  0  0  0  0  0  0  0  0  0
    3.6143   44.4671   52.1026 H   0  0  0  0  0  0  0  0  0  0  0  0
    3.2658   41.0959   50.8684 H   0  0  0  0  0  0  0  0  0  0  0  0
    5.0290   39.8274   49.6455 H   0  0  0  0  0  0  0  0  0  0  0  0
    7.2673   40.8581   49.2596 H   0  0  0  0  0  0  0  0  0  0  0  0
    7.7387   43.1523   50.1132 H   0  0  0  0  0  0  0  0  0  0  0  0
    5.9784   44.4234   51.3362 H   0  0  0  0  0  0  0  0  0  0  0  0
    7.7270   48.7214   52.8854 H   0  0  0  0  0  0  0  0  0  0  0  0
    8.3834   45.6528   52.4562 H   0  0  0  0  0  0  0  0  0  0  0  0
    8.6789   46.7485   51.2453 H   0  0  0  0  0  0  0  0  0  0  0  0
   10.6466   46.1821   53.3636 H   0  0  0  0  0  0  0  0  0  0  0  0
   10.7785   47.7010   52.7033 H   0  0  0  0  0  0  0  0  0  0  0  0
    8.8811   46.7322   55.0387 H   0  0  0  0  0  0  0  0  0  0  0  0
    9.3981   48.3080   54.9764 H   0  0  0  0  0  0  0  0  0  0  0  0
  1  2  1  0
  2  3  1  0
  3  4  1  0
  4  5  1  0
  5  6  1  0
  6  7  2  0
  7  8  1  0
  8  9  2  0
  9 10  1  0
 10 11  2  0
 11 12  1  0
 12 13  2  0
 12 14  1  0
 14 15  1  0
 15 16  2  0
 16 17  1  0
 17 18  2  0
 18 19  1  0
 19 20  2  0
  3 21  2  0
 21 22  1  0
 22 23  2  0
 23 24  1  0
 24 25  1  0
 25 26  1  0
 26 27  1  0
 23  2  1  0
 27 24  1  0
 11  6  1  0
 20 15  1  0
  1 28  1  0
  1 29  1  0
  1 30  1  0
  4 31  1  0
  4 32  1  0
  7 33  1  0
  8 34  1  0
  9 35  1  0
 10 36  1  0
 14 37  1  0
 16 38  1  0
 17 39  1  0
 18 40  1  0
 19 41  1  0
 20 42  1  0
 24 43  1  0
 25 44  1  0
 25 45  1  0
 26 46  1  0
 26 47  1  0
 27 48  1  0
 27 49  1  0
M  END
>  <meeko>  (205) 
{"is_sidechain": false}

>  <CID>  (205) 
Z1646104587

>  <pose_index>  (205) 
5

>  <docking_score>  (205) 
-8.02

>  <rmsd_to_best_selected>  (205) 
1.2390914913754385

>  <MWT>  (205) 
362.43299999999965

>  <TPSA>  (205) 
69.03999999999999

>  <logP>  (205) 
3.9139000000000026

>  <HBD>  (205) 
1

>  <HBA>  (205) 
5

>  <SMILES>  (205) 
[H]c1c([H])c([H])c(N([H])C(=O)c2c([H])c([H])c([H])c([H])c2OC([H])([H])c2nnc(C3([H])C([H])([H])C([H])([H])C3([H])[H])n2C([H])([H])[H])c([H])c1[H]

$$$$
Z1646104587_pose1
     RDKit          3D

 49 52  0  0  0  0  0  0  0  0999 V2000
    5.8800   44.5310   54.8210 C   0  0  0  0  0  0  0  0  0  0  0  0
    5.8260   45.8560   54.2590 N   0  0  0  0  0  0  0  0  0  0  0  0
    4.7340   46.6960   54.2680 C   0  0  0  0  0  0  0  0  0  0  0  0
    3.4090   46.4000   54.8750 C   0  0  0  0  0  0  0  0  0  0  0  0
    2.4270   46.1740   53.8530 O   0  0  0  0  0  0  0  0  0  0  0  0
    1.4150   45.2750   54.0770 C   0  0  0  0  0  0  0  0  0  0  0  0
    0.5360   45.3540   55.1650 C   0  0  0  0  0  0  0  0  0  0  0  0
   -0.4710   44.3990   55.3370 C   0  0  0  0  0  0  0  0  0  0  0  0
   -0.6120   43.3550   54.4300 C   0  0  0  0  0  0  0  0  0  0  0  0
    0.2530   43.2650   53.3420 C   0  0  0  0  0  0  0  0  0  0  0  0
    1.2640   44.2230   53.1480 C   0  0  0  0  0  0  0  0  0  0  0  0
    2.1660   44.0180   51.9670 C   0  0  0  0  0  0  0  0  0  0  0  0
    1.6860   44.1250   50.8430 O   0  0  0  0  0  0  0  0  0  0  0  0
    3.4850   43.7300   52.2610 N   0  0  0  0  0  0  0  0  0  0  0  0
    4.5350   43.4450   51.3690 C   0  0  0  0  0  0  0  0  0  0  0  0
    4.6160   42.1360   50.8770 C   0  0  0  0  0  0  0  0  0  0  0  0
    5.6220   41.7720   49.9770 C   0  0  0  0  0  0  0  0  0  0  0  0
    6.5570   42.7150   49.5610 C   0  0  0  0  0  0  0  0  0  0  0  0
    6.4850   44.0190   50.0470 C   0  0  0  0  0  0  0  0  0  0  0  0
    5.4790   44.3830   50.9470 C   0  0  0  0  0  0  0  0  0  0  0  0
    5.0510   47.8110   53.6440 N   0  0  0  0  0  0  0  0  0  0  0  0
    6.3570   47.7220   53.2520 N   0  0  0  0  0  0  0  0  0  0  0  0
    6.8300   46.5540   53.6360 C   0  0  0  0  0  0  0  0  0  0  0  0
    8.3140   46.1750   53.3580 C   0  0  0  0  0  0  0  0  0  0  0  0
    9.3900   47.1520   53.8780 C   0  0  0  0  0  0  0  0  0  0  0  0
   10.2060   46.8120   52.6120 C   0  0  0  0  0  0  0  0  0  0  0  0
    8.8780   46.4020   51.9400 C   0  0  0  0  0  0  0  0  0  0  0  0
    5.8773   44.5980   55.9190 H   0  0  0  0  0  0  0  0  0  0  0  0
    5.0046   43.9549   54.4866 H   0  0  0  0  0  0  0  0  0  0  0  0
    6.7994   44.0281   54.4866 H   0  0  0  0  0  0  0  0  0  0  0  0
    3.4914   45.5007   55.5031 H   0  0  0  0  0  0  0  0  0  0  0  0
    3.0966   47.2609   55.4843 H   0  0  0  0  0  0  0  0  0  0  0  0
    0.6388   46.1745   55.8904 H   0  0  0  0  0  0  0  0  0  0  0  0
   -1.1554   44.4743   56.1949 H   0  0  0  0  0  0  0  0  0  0  0  0
   -1.4029   42.6036   54.5709 H   0  0  0  0  0  0  0  0  0  0  0  0
    0.1442   42.4360   52.6272 H   0  0  0  0  0  0  0  0  0  0  0  0
    3.7130   43.6890   53.2500 H   0  0  0  0  0  0  0  0  0  0  0  0
    3.8799   41.3861   51.2024 H   0  0  0  0  0  0  0  0  0  0  0  0
    5.6744   40.7407   49.5979 H   0  0  0  0  0  0  0  0  0  0  0  0
    7.3491   42.4324   48.8520 H   0  0  0  0  0  0  0  0  0  0  0  0
    7.2237   44.7660   49.7208 H   0  0  0  0  0  0  0  0  0  0  0  0
    5.4310   45.4149   51.3250 H   0  0  0  0  0  0  0  0  0  0  0  0
    8.2053   45.1567   53.7596 H   0  0  0  0  0  0  0  0  0  0  0  0
    9.0641   48.2003   53.9469 H   0  0  0  0  0  0  0  0  0  0  0  0
    9.8186   47.0599   54.8868 H   0  0  0  0  0  0  0  0  0  0  0  0
   10.7082   47.6727   52.1462 H   0  0  0  0  0  0  0  0  0  0  0  0
   11.0684   46.1301   52.6480 H   0  0  0  0  0  0  0  0  0  0  0  0
    8.3838   47.2039   51.3720 H   0  0  0  0  0  0  0  0  0  0  0  0
    8.8361   45.6204   51.1671 H   0  0  0  0  0  0  0  0  0  0  0  0
  1  2  1  0
  2  3  1  0
  3  4  1  0
  4  5  1  0
  5  6  1  0
  6  7  2  0
  7  8  1  0
  8  9  2  0
  9 10  1  0
 10 11  2  0
 11 12  1  0
 12 13  2  0
 12 14  1  0
 14 15  1  0
 15 16  2  0
 16 17  1  0
 17 18  2  0
 18 19  1  0
 19 20  2  0
  3 21  2  0
 21 22  1  0
 22 23  2  0
 23 24  1  0
 24 25  1  0
 25 26  1  0
 26 27  1  0
 23  2  1  0
 27 24  1  0
 11  6  1  0
 20 15  1  0
  1 28  1  0
  1 29  1  0
  1 30  1  0
  4 31  1  0
  4 32  1  0
  7 33  1  0
  8 34  1  0
  9 35  1  0
 10 36  1  0
 14 37  1  0
 16 38  1  0
 17 39  1  0
 18 40  1  0
 19 41  1  0
 20 42  1  0
 24 43  1  0
 25 44  1  0
 25 45  1  0
 26 46  1  0
 26 47  1  0
 27 48  1  0
 27 49  1  0
M  END
>  <meeko>  (206) 
{"is_sidechain": false}

>  <CID>  (206) 
Z1646104587

>  <pose_index>  (206) 
1

>  <docking_score>  (206) 
-9.478

>  <rmsd_to_best_selected>  (206) 
0.0

>  <MWT>  (206) 
362.43299999999965

>  <TPSA>  (206) 
69.03999999999999

>  <logP>  (206) 
3.9139000000000026

>  <HBD>  (206) 
1

>  <HBA>  (206) 
5

>  <SMILES>  (206) 
[H]c1c([H])c([H])c(N([H])C(=O)c2c([H])c([H])c([H])c([H])c2OC([H])([H])c2nnc(C3([H])C([H])([H])C([H])([H])C3([H])[H])n2C([H])([H])[H])c([H])c1[H]

$$$$
Z1646104587_pose2
     RDKit          3D

 49 52  0  0  0  0  0  0  0  0999 V2000
    5.3776   48.0020   53.8511 C   0  0  0  0  0  0  0  0  0  0  0  0
    5.7352   46.7139   54.3850 N   0  0  0  0  0  0  0  0  0  0  0  0
    4.8940   45.8498   55.0517 C   0  0  0  0  0  0  0  0  0  0  0  0
    3.4512   46.0783   55.3311 C   0  0  0  0  0  0  0  0  0  0  0  0
    2.6668   45.8463   54.1518 O   0  0  0  0  0  0  0  0  0  0  0  0
    1.5926   44.9945   54.2122 C   0  0  0  0  0  0  0  0  0  0  0  0
    0.3456   45.3592   54.7344 C   0  0  0  0  0  0  0  0  0  0  0  0
   -0.7070   44.4390   54.7715 C   0  0  0  0  0  0  0  0  0  0  0  0
   -0.5274   43.1466   54.2917 C   0  0  0  0  0  0  0  0  0  0  0  0
    0.7069   42.7710   53.7668 C   0  0  0  0  0  0  0  0  0  0  0  0
    1.7716   43.6872   53.7121 C   0  0  0  0  0  0  0  0  0  0  0  0
    3.0710   43.1759   53.1623 C   0  0  0  0  0  0  0  0  0  0  0  0
    3.7024   42.3608   53.8251 O   0  0  0  0  0  0  0  0  0  0  0  0
    3.4387   43.6775   51.9282 N   0  0  0  0  0  0  0  0  0  0  0  0
    4.6122   43.4188   51.1974 C   0  0  0  0  0  0  0  0  0  0  0  0
    4.4903   42.6053   50.0628 C   0  0  0  0  0  0  0  0  0  0  0  0
    5.6054   42.3083   49.2726 C   0  0  0  0  0  0  0  0  0  0  0  0
    6.8530   42.8230   49.6123 C   0  0  0  0  0  0  0  0  0  0  0  0
    6.9845   43.6307   50.7399 C   0  0  0  0  0  0  0  0  0  0  0  0
    5.8688   43.9266   51.5290 C   0  0  0  0  0  0  0  0  0  0  0  0
    5.5771   44.7830   55.4101 N   0  0  0  0  0  0  0  0  0  0  0  0
    6.8574   44.9270   54.9547 N   0  0  0  0  0  0  0  0  0  0  0  0
    6.9498   46.0792   54.3220 C   0  0  0  0  0  0  0  0  0  0  0  0
    8.2918   46.5082   53.6586 C   0  0  0  0  0  0  0  0  0  0  0  0
    8.2573   46.7981   52.1431 C   0  0  0  0  0  0  0  0  0  0  0  0
    9.6744   46.1913   52.0683 C   0  0  0  0  0  0  0  0  0  0  0  0
    9.3480   45.4224   53.3667 C   0  0  0  0  0  0  0  0  0  0  0  0
    5.3272   48.7365   54.6684 H   0  0  0  0  0  0  0  0  0  0  0  0
    6.1354   48.3190   53.1195 H   0  0  0  0  0  0  0  0  0  0  0  0
    4.3968   47.9349   53.3575 H   0  0  0  0  0  0  0  0  0  0  0  0
    3.1231   45.3909   56.1247 H   0  0  0  0  0  0  0  0  0  0  0  0
    3.3121   47.1216   55.6507 H   0  0  0  0  0  0  0  0  0  0  0  0
    0.1925   46.3785   55.1187 H   0  0  0  0  0  0  0  0  0  0  0  0
   -1.6821   44.7395   55.1824 H   0  0  0  0  0  0  0  0  0  0  0  0
   -1.3561   42.4241   54.3264 H   0  0  0  0  0  0  0  0  0  0  0  0
    0.8499   41.7470   53.3913 H   0  0  0  0  0  0  0  0  0  0  0  0
    2.7897   44.3388   51.5143 H   0  0  0  0  0  0  0  0  0  0  0  0
    3.5064   42.1957   49.7907 H   0  0  0  0  0  0  0  0  0  0  0  0
    5.4966   41.6689   48.3841 H   0  0  0  0  0  0  0  0  0  0  0  0
    7.7322   42.5930   48.9926 H   0  0  0  0  0  0  0  0  0  0  0  0
    7.9702   44.0372   51.0105 H   0  0  0  0  0  0  0  0  0  0  0  0
    5.9826   44.5645   52.4178 H   0  0  0  0  0  0  0  0  0  0  0  0
    8.4904   47.2959   54.4003 H   0  0  0  0  0  0  0  0  0  0  0  0
    7.4891   46.2415   51.5862 H   0  0  0  0  0  0  0  0  0  0  0  0
    8.0339   47.8005   51.7491 H   0  0  0  0  0  0  0  0  0  0  0  0
    9.8531   45.5526   51.1908 H   0  0  0  0  0  0  0  0  0  0  0  0
   10.5691   46.8255   51.9836 H   0  0  0  0  0  0  0  0  0  0  0  0
    8.9387   44.4131   53.2123 H   0  0  0  0  0  0  0  0  0  0  0  0
   10.1275   45.1601   54.0971 H   0  0  0  0  0  0  0  0  0  0  0  0
  1  2  1  0
  2  3  1  0
  3  4  1  0
  4  5  1  0
  5  6  1  0
  6  7  2  0
  7  8  1  0
  8  9  2  0
  9 10  1  0
 10 11  2  0
 11 12  1  0
 12 13  2  0
 12 14  1  0
 14 15  1  0
 15 16  2  0
 16 17  1  0
 17 18  2  0
 18 19  1  0
 19 20  2  0
  3 21  2  0
 21 22  1  0
 22 23  2  0
 23 24  1  0
 24 25  1  0
 25 26  1  0
 26 27  1  0
 23  2  1  0
 27 24  1  0
 11  6  1  0
 20 15  1  0
  1 28  1  0
  1 29  1  0
  1 30  1  0
  4 31  1  0
  4 32  1  0
  7 33  1  0
  8 34  1  0
  9 35  1  0
 10 36  1  0
 14 37  1  0
 16 38  1  0
 17 39  1  0
 18 40  1  0
 19 41  1  0
 20 42  1  0
 24 43  1  0
 25 44  1  0
 25 45  1  0
 26 46  1  0
 26 47  1  0
 27 48  1  0
 27 49  1  0
M  END
>  <meeko>  (207) 
{"is_sidechain": false}

>  <CID>  (207) 
Z1646104587

>  <pose_index>  (207) 
2

>  <docking_score>  (207) 
-8.972

>  <rmsd_to_best_selected>  (207) 
1.907468732696127

>  <MWT>  (207) 
362.43299999999965

>  <TPSA>  (207) 
69.03999999999999

>  <logP>  (207) 
3.9139000000000026

>  <HBD>  (207) 
1

>  <HBA>  (207) 
5

>  <SMILES>  (207) 
[H]c1c([H])c([H])c(N([H])C(=O)c2c([H])c([H])c([H])c([H])c2OC([H])([H])c2nnc(C3([H])C([H])([H])C([H])([H])C3([H])[H])n2C([H])([H])[H])c([H])c1[H]

$$$$
Z1646104587_pose3
     RDKit          3D

 49 52  0  0  0  0  0  0  0  0999 V2000
    5.2612   47.8308   54.1771 C   0  0  0  0  0  0  0  0  0  0  0  0
    5.7937   46.4996   54.3061 N   0  0  0  0  0  0  0  0  0  0  0  0
    5.1294   45.4082   54.8214 C   0  0  0  0  0  0  0  0  0  0  0  0
    3.7301   45.3939   55.3246 C   0  0  0  0  0  0  0  0  0  0  0  0
    2.8065   45.6304   54.2518 O   0  0  0  0  0  0  0  0  0  0  0  0
    1.5941   44.9874   54.2501 C   0  0  0  0  0  0  0  0  0  0  0  0
    0.6749   45.0701   55.3035 C   0  0  0  0  0  0  0  0  0  0  0  0
   -0.5421   44.3833   55.2409 C   0  0  0  0  0  0  0  0  0  0  0  0
   -0.8548   43.6073   54.1306 C   0  0  0  0  0  0  0  0  0  0  0  0
    0.0490   43.5193   53.0738 C   0  0  0  0  0  0  0  0  0  0  0  0
    1.2722   44.2109   53.1171 C   0  0  0  0  0  0  0  0  0  0  0  0
    2.1916   44.0231   51.9466 C   0  0  0  0  0  0  0  0  0  0  0  0
    1.8004   44.3703   50.8376 O   0  0  0  0  0  0  0  0  0  0  0  0
    3.4242   43.4706   52.2351 N   0  0  0  0  0  0  0  0  0  0  0  0
    4.4611   43.1374   51.3426 C   0  0  0  0  0  0  0  0  0  0  0  0
    5.4591   44.1000   51.1376 C   0  0  0  0  0  0  0  0  0  0  0  0
    6.5299   43.8452   50.2760 C   0  0  0  0  0  0  0  0  0  0  0  0
    6.6126   42.6248   49.6124 C   0  0  0  0  0  0  0  0  0  0  0  0
    5.6240   41.6635   49.8079 C   0  0  0  0  0  0  0  0  0  0  0  0
    4.5523   41.9184   50.6695 C   0  0  0  0  0  0  0  0  0  0  0  0
    5.9392   44.3691   54.8012 N   0  0  0  0  0  0  0  0  0  0  0  0
    7.1238   44.7661   54.2468 N   0  0  0  0  0  0  0  0  0  0  0  0
    7.0323   46.0416   53.9327 C   0  0  0  0  0  0  0  0  0  0  0  0
    8.2239   46.7713   53.2462 C   0  0  0  0  0  0  0  0  0  0  0  0
    8.8081   46.1105   51.9803 C   0  0  0  0  0  0  0  0  0  0  0  0
   10.1932   46.6071   52.4480 C   0  0  0  0  0  0  0  0  0  0  0  0
    9.6241   46.6521   53.8825 C   0  0  0  0  0  0  0  0  0  0  0  0
    5.0061   48.2219   55.1731 H   0  0  0  0  0  0  0  0  0  0  0  0
    6.0133   48.4828   53.7088 H   0  0  0  0  0  0  0  0  0  0  0  0
    4.3573   47.8050   53.5508 H   0  0  0  0  0  0  0  0  0  0  0  0
    3.5177   44.4132   55.7752 H   0  0  0  0  0  0  0  0  0  0  0  0
    3.6143   46.1899   56.0749 H   0  0  0  0  0  0  0  0  0  0  0  0
    0.9120   45.6802   56.1875 H   0  0  0  0  0  0  0  0  0  0  0  0
   -1.2556   44.4576   56.0748 H   0  0  0  0  0  0  0  0  0  0  0  0
   -1.8110   43.0655   54.0865 H   0  0  0  0  0  0  0  0  0  0  0  0
   -0.1970   42.9024   52.1969 H   0  0  0  0  0  0  0  0  0  0  0  0
    3.5873   43.2502   53.2120 H   0  0  0  0  0  0  0  0  0  0  0  0
    5.3991   45.0661   51.6603 H   0  0  0  0  0  0  0  0  0  0  0  0
    7.3066   44.6089   50.1225 H   0  0  0  0  0  0  0  0  0  0  0  0
    7.4556   42.4201   48.9360 H   0  0  0  0  0  0  0  0  0  0  0  0
    5.6865   40.6993   49.2822 H   0  0  0  0  0  0  0  0  0  0  0  0
    3.7763   41.1530   50.8175 H   0  0  0  0  0  0  0  0  0  0  0  0
    7.7055   47.7410   53.2132 H   0  0  0  0  0  0  0  0  0  0  0  0
    8.7011   45.0163   51.9422 H   0  0  0  0  0  0  0  0  0  0  0  0
    8.4196   46.3361   50.9762 H   0  0  0  0  0  0  0  0  0  0  0  0
   11.0112   45.8863   52.3022 H   0  0  0  0  0  0  0  0  0  0  0  0
   10.6759   47.4836   51.9913 H   0  0  0  0  0  0  0  0  0  0  0  0
    9.7853   45.7359   54.4697 H   0  0  0  0  0  0  0  0  0  0  0  0
    9.9861   47.3757   54.6277 H   0  0  0  0  0  0  0  0  0  0  0  0
  1  2  1  0
  2  3  1  0
  3  4  1  0
  4  5  1  0
  5  6  1  0
  6  7  2  0
  7  8  1  0
  8  9  2  0
  9 10  1  0
 10 11  2  0
 11 12  1  0
 12 13  2  0
 12 14  1  0
 14 15  1  0
 15 16  2  0
 16 17  1  0
 17 18  2  0
 18 19  1  0
 19 20  2  0
  3 21  2  0
 21 22  1  0
 22 23  2  0
 23 24  1  0
 24 25  1  0
 25 26  1  0
 26 27  1  0
 23  2  1  0
 27 24  1  0
 11  6  1  0
 20 15  1  0
  1 28  1  0
  1 29  1  0
  1 30  1  0
  4 31  1  0
  4 32  1  0
  7 33  1  0
  8 34  1  0
  9 35  1  0
 10 36  1  0
 14 37  1  0
 16 38  1  0
 17 39  1  0
 18 40  1  0
 19 41  1  0
 20 42  1  0
 24 43  1  0
 25 44  1  0
 25 45  1  0
 26 46  1  0
 26 47  1  0
 27 48  1  0
 27 49  1  0
M  END
>  <meeko>  (208) 
{"is_sidechain": false}

>  <CID>  (208) 
Z1646104587

>  <pose_index>  (208) 
3

>  <docking_score>  (208) 
-8.88

>  <rmsd_to_best_selected>  (208) 
1.5187379051530716

>  <MWT>  (208) 
362.43299999999965

>  <TPSA>  (208) 
69.03999999999999

>  <logP>  (208) 
3.9139000000000026

>  <HBD>  (208) 
1

>  <HBA>  (208) 
5

>  <SMILES>  (208) 
[H]c1c([H])c([H])c(N([H])C(=O)c2c([H])c([H])c([H])c([H])c2OC([H])([H])c2nnc(C3([H])C([H])([H])C([H])([H])C3([H])[H])n2C([H])([H])[H])c([H])c1[H]

$$$$
Z1646104587_pose9
     RDKit          3D

 49 52  0  0  0  0  0  0  0  0999 V2000
    6.6186   45.0102   55.0533 C   0  0  0  0  0  0  0  0  0  0  0  0
    5.9110   46.1277   54.4863 N   0  0  0  0  0  0  0  0  0  0  0  0
    4.6078   46.4845   54.7566 C   0  0  0  0  0  0  0  0  0  0  0  0
    3.6906   45.7909   55.7005 C   0  0  0  0  0  0  0  0  0  0  0  0
    3.0850   44.6537   55.0685 O   0  0  0  0  0  0  0  0  0  0  0  0
    1.8297   44.7723   54.5255 C   0  0  0  0  0  0  0  0  0  0  0  0
    0.6631   44.8820   55.2927 C   0  0  0  0  0  0  0  0  0  0  0  0
   -0.5860   44.9927   54.6735 C   0  0  0  0  0  0  0  0  0  0  0  0
   -0.6870   44.9925   53.2872 C   0  0  0  0  0  0  0  0  0  0  0  0
    0.4666   44.8873   52.5119 C   0  0  0  0  0  0  0  0  0  0  0  0
    1.7303   44.7852   53.1178 C   0  0  0  0  0  0  0  0  0  0  0  0
    2.9073   44.6398   52.1983 C   0  0  0  0  0  0  0  0  0  0  0  0
    3.2536   45.6147   51.5393 O   0  0  0  0  0  0  0  0  0  0  0  0
    3.5078   43.3965   52.1841 N   0  0  0  0  0  0  0  0  0  0  0  0
    4.5868   42.9581   51.3937 C   0  0  0  0  0  0  0  0  0  0  0  0
    4.2991   42.0393   50.3755 C   0  0  0  0  0  0  0  0  0  0  0  0
    5.3114   41.5621   49.5380 C   0  0  0  0  0  0  0  0  0  0  0  0
    6.6206   41.9997   49.7111 C   0  0  0  0  0  0  0  0  0  0  0  0
    6.9160   42.9117   50.7224 C   0  0  0  0  0  0  0  0  0  0  0  0
    5.9036   43.3888   51.5609 C   0  0  0  0  0  0  0  0  0  0  0  0
    4.2982   47.5429   54.0373 N   0  0  0  0  0  0  0  0  0  0  0  0
    5.4021   47.9044   53.3173 N   0  0  0  0  0  0  0  0  0  0  0  0
    6.3781   47.0651   53.5987 C   0  0  0  0  0  0  0  0  0  0  0  0
    7.7832   47.2444   52.9506 C   0  0  0  0  0  0  0  0  0  0  0  0
    8.2042   46.1933   51.9015 C   0  0  0  0  0  0  0  0  0  0  0  0
    9.6424   46.3321   52.4461 C   0  0  0  0  0  0  0  0  0  0  0  0
    9.0268   46.8398   53.7692 C   0  0  0  0  0  0  0  0  0  0  0  0
    6.5911   45.0774   56.1509 H   0  0  0  0  0  0  0  0  0  0  0  0
    6.1417   44.0727   54.7313 H   0  0  0  0  0  0  0  0  0  0  0  0
    7.6638   45.0262   54.7110 H   0  0  0  0  0  0  0  0  0  0  0  0
    4.2612   45.4556   56.5791 H   0  0  0  0  0  0  0  0  0  0  0  0
    2.8993   46.4910   56.0067 H   0  0  0  0  0  0  0  0  0  0  0  0
    0.7299   44.8810   56.3906 H   0  0  0  0  0  0  0  0  0  0  0  0
   -1.4944   45.0804   55.2876 H   0  0  0  0  0  0  0  0  0  0  0  0
   -1.6720   45.0749   52.8045 H   0  0  0  0  0  0  0  0  0  0  0  0
    0.3869   44.8842   51.4148 H   0  0  0  0  0  0  0  0  0  0  0  0
    3.0954   42.7046   52.8023 H   0  0  0  0  0  0  0  0  0  0  0  0
    3.2657   41.6899   50.2337 H   0  0  0  0  0  0  0  0  0  0  0  0
    5.0731   40.8408   48.7425 H   0  0  0  0  0  0  0  0  0  0  0  0
    7.4191   41.6275   49.0524 H   0  0  0  0  0  0  0  0  0  0  0  0
    7.9507   43.2580   50.8620 H   0  0  0  0  0  0  0  0  0  0  0  0
    6.1467   44.1079   52.3570 H   0  0  0  0  0  0  0  0  0  0  0  0
    7.6074   48.2972   52.6850 H   0  0  0  0  0  0  0  0  0  0  0  0
    7.7541   45.1993   52.0407 H   0  0  0  0  0  0  0  0  0  0  0  0
    7.9741   46.3158   50.8328 H   0  0  0  0  0  0  0  0  0  0  0  0
   10.1932   45.3838   52.5316 H   0  0  0  0  0  0  0  0  0  0  0  0
   10.4094   46.9089   51.9084 H   0  0  0  0  0  0  0  0  0  0  0  0
    8.8470   46.0582   54.5220 H   0  0  0  0  0  0  0  0  0  0  0  0
    9.5533   47.5561   54.4169 H   0  0  0  0  0  0  0  0  0  0  0  0
  1  2  1  0
  2  3  1  0
  3  4  1  0
  4  5  1  0
  5  6  1  0
  6  7  2  0
  7  8  1  0
  8  9  2  0
  9 10  1  0
 10 11  2  0
 11 12  1  0
 12 13  2  0
 12 14  1  0
 14 15  1  0
 15 16  2  0
 16 17  1  0
 17 18  2  0
 18 19  1  0
 19 20  2  0
  3 21  2  0
 21 22  1  0
 22 23  2  0
 23 24  1  0
 24 25  1  0
 25 26  1  0
 26 27  1  0
 23  2  1  0
 27 24  1  0
 11  6  1  0
 20 15  1  0
  1 28  1  0
  1 29  1  0
  1 30  1  0
  4 31  1  0
  4 32  1  0
  7 33  1  0
  8 34  1  0
  9 35  1  0
 10 36  1  0
 14 37  1  0
 16 38  1  0
 17 39  1  0
 18 40  1  0
 19 41  1  0
 20 42  1  0
 24 43  1  0
 25 44  1  0
 25 45  1  0
 26 46  1  0
 26 47  1  0
 27 48  1  0
 27 49  1  0
M  END
>  <meeko>  (209) 
{"is_sidechain": false}

>  <CID>  (209) 
Z1646104587

>  <pose_index>  (209) 
9

>  <docking_score>  (209) 
-7.898

>  <rmsd_to_best_selected>  (209) 
1.324066158367955

>  <MWT>  (209) 
362.43299999999965

>  <TPSA>  (209) 
69.03999999999999

>  <logP>  (209) 
3.9139000000000026

>  <HBD>  (209) 
1

>  <HBA>  (209) 
5

>  <SMILES>  (209) 
[H]c1c([H])c([H])c(N([H])C(=O)c2c([H])c([H])c([H])c([H])c2OC([H])([H])c2nnc(C3([H])C([H])([H])C([H])([H])C3([H])[H])n2C([H])([H])[H])c([H])c1[H]

$$$$
Z1657740785_pose1
     RDKit          3D

 44 47  0  0  0  0  0  0  0  0999 V2000
    2.8710   43.7200   53.0760 O   0  0  0  0  0  0  0  0  0  0  0  0
    2.6200   44.7570   53.6770 C   0  0  0  0  0  0  0  0  0  0  0  0
    3.3180   45.9380   53.6270 N   0  0  0  0  0  0  0  0  0  0  0  0
    4.4670   46.1420   52.9200 C   0  0  0  0  0  0  0  0  0  0  0  0
    4.7040   45.6790   51.6610 N   0  0  0  0  0  0  0  0  0  0  0  0
    5.9160   46.1050   51.3970 C   0  0  0  0  0  0  0  0  0  0  0  0
    6.3880   46.7980   52.4660 N   0  0  0  0  0  0  0  0  0  0  0  0
    7.6880   47.4410   52.5980 C   0  0  0  0  0  0  0  0  0  0  0  0
    8.3810   47.0220   53.9080 C   0  0  0  0  0  0  0  0  0  0  0  0
    9.8820   47.2700   53.8440 C   0  0  0  0  0  0  0  0  0  0  0  0
   10.5470   46.4560   52.7320 C   0  0  0  0  0  0  0  0  0  0  0  0
    9.6190   46.1470   51.5550 C   0  0  0  0  0  0  0  0  0  0  0  0
    8.5720   47.2390   51.3520 C   0  0  0  0  0  0  0  0  0  0  0  0
    5.4760   46.8350   53.4570 N   0  0  0  0  0  0  0  0  0  0  0  0
    1.4020   44.7840   54.5380 C   0  0  0  0  0  0  0  0  0  0  0  0
    0.3190   43.9710   54.1830 C   0  0  0  0  0  0  0  0  0  0  0  0
   -0.8390   43.9680   54.9590 C   0  0  0  0  0  0  0  0  0  0  0  0
   -0.9210   44.7700   56.1000 C   0  0  0  0  0  0  0  0  0  0  0  0
    0.1600   45.5760   56.4860 C   0  0  0  0  0  0  0  0  0  0  0  0
    0.1240   46.4250   57.6800 C   0  0  0  0  0  0  0  0  0  0  0  0
   -0.9440   46.9880   58.2130 N   0  0  0  0  0  0  0  0  0  0  0  0
   -0.4530   47.6680   59.2900 C   0  0  0  0  0  0  0  0  0  0  0  0
    0.8640   47.5700   59.4670 N   0  0  0  0  0  0  0  0  0  0  0  0
    1.2100   46.7860   58.4340 N   0  0  0  0  0  0  0  0  0  0  0  0
    1.3220   45.5720   55.6940 C   0  0  0  0  0  0  0  0  0  0  0  0
    2.9840   46.7750   54.0770 H   0  0  0  0  0  0  0  0  0  0  0  0
    6.4633   45.9292   50.4592 H   0  0  0  0  0  0  0  0  0  0  0  0
    7.5197   48.5263   52.6604 H   0  0  0  0  0  0  0  0  0  0  0  0
    7.9569   47.6038   54.7397 H   0  0  0  0  0  0  0  0  0  0  0  0
    8.2132   45.9456   54.0605 H   0  0  0  0  0  0  0  0  0  0  0  0
   10.0582   48.3394   53.6561 H   0  0  0  0  0  0  0  0  0  0  0  0
   10.3205   46.9589   54.8036 H   0  0  0  0  0  0  0  0  0  0  0  0
   11.4094   47.0246   52.3540 H   0  0  0  0  0  0  0  0  0  0  0  0
   10.8397   45.4912   53.1718 H   0  0  0  0  0  0  0  0  0  0  0  0
   10.2229   46.0592   50.6398 H   0  0  0  0  0  0  0  0  0  0  0  0
    9.0920   45.2069   51.7749 H   0  0  0  0  0  0  0  0  0  0  0  0
    9.0865   48.1847   51.1263 H   0  0  0  0  0  0  0  0  0  0  0  0
    7.9189   46.9289   50.5229 H   0  0  0  0  0  0  0  0  0  0  0  0
    0.3820   43.3328   53.2893 H   0  0  0  0  0  0  0  0  0  0  0  0
   -1.6901   43.3328   54.6724 H   0  0  0  0  0  0  0  0  0  0  0  0
   -1.8421   44.7693   56.7013 H   0  0  0  0  0  0  0  0  0  0  0  0
   -1.0972   48.2537   59.9623 H   0  0  0  0  0  0  0  0  0  0  0  0
    2.1850   46.5480   58.3020 H   0  0  0  0  0  0  0  0  0  0  0  0
    2.1797   46.1958   55.9858 H   0  0  0  0  0  0  0  0  0  0  0  0
  1  2  2  0
  2  3  1  0
  3  4  1  0
  4  5  1  0
  5  6  2  0
  6  7  1  0
  7  8  1  0
  8  9  1  0
  9 10  1  0
 10 11  1  0
 11 12  1  0
 12 13  1  0
  7 14  1  0
  2 15  1  0
 15 16  2  0
 16 17  1  0
 17 18  2  0
 18 19  1  0
 19 20  1  0
 20 21  2  0
 21 22  1  0
 22 23  2  0
 23 24  1  0
 19 25  2  0
 14  4  2  0
 25 15  1  0
 13  8  1  0
 24 20  1  0
  3 26  1  0
  6 27  1  0
  8 28  1  0
  9 29  1  0
  9 30  1  0
 10 31  1  0
 10 32  1  0
 11 33  1  0
 11 34  1  0
 12 35  1  0
 12 36  1  0
 13 37  1  0
 13 38  1  0
 16 39  1  0
 17 40  1  0
 18 41  1  0
 22 42  1  0
 24 43  1  0
 25 44  1  0
M  END
>  <meeko>  (210) 
{"is_sidechain": false}

>  <CID>  (210) 
Z1657740785

>  <pose_index>  (210) 
1

>  <docking_score>  (210) 
-9.276

>  <rmsd_to_best_selected>  (210) 
0.0

>  <MWT>  (210) 
337.38699999999966

>  <TPSA>  (210) 
101.38

>  <logP>  (210) 
2.8207000000000004

>  <HBD>  (210) 
2

>  <HBA>  (210) 
6

>  <SMILES>  (210) 
[H]c1nc(-c2c([H])c([H])c([H])c(C(=O)N([H])c3nc([H])n(C4([H])C([H])([H])C([H])([H])C([H])([H])C([H])([H])C4([H])[H])n3)c2[H])n([H])n1

$$$$
Z1657740785_pose2
     RDKit          3D

 44 47  0  0  0  0  0  0  0  0999 V2000
    3.4121   43.7324   54.1693 O   0  0  0  0  0  0  0  0  0  0  0  0
    2.8580   44.8203   54.0609 C   0  0  0  0  0  0  0  0  0  0  0  0
    3.3048   45.9168   53.3686 N   0  0  0  0  0  0  0  0  0  0  0  0
    4.4973   45.9976   52.7085 C   0  0  0  0  0  0  0  0  0  0  0  0
    4.8460   45.2426   51.6292 N   0  0  0  0  0  0  0  0  0  0  0  0
    6.0579   45.6540   51.3440 C   0  0  0  0  0  0  0  0  0  0  0  0
    6.4220   46.6212   52.2255 N   0  0  0  0  0  0  0  0  0  0  0  0
    7.6825   47.3463   52.2717 C   0  0  0  0  0  0  0  0  0  0  0  0
    8.2790   47.3310   53.6912 C   0  0  0  0  0  0  0  0  0  0  0  0
    9.7707   47.6350   53.6689 C   0  0  0  0  0  0  0  0  0  0  0  0
   10.5532   46.5928   52.8687 C   0  0  0  0  0  0  0  0  0  0  0  0
    9.7375   45.9307   51.7559 C   0  0  0  0  0  0  0  0  0  0  0  0
    8.6742   46.8688   51.1920 C   0  0  0  0  0  0  0  0  0  0  0  0
    5.4358   46.8589   53.1122 N   0  0  0  0  0  0  0  0  0  0  0  0
    1.5268   44.9899   54.7139 C   0  0  0  0  0  0  0  0  0  0  0  0
    0.3839   44.6070   54.0015 C   0  0  0  0  0  0  0  0  0  0  0  0
   -0.8788   44.7514   54.5722 C   0  0  0  0  0  0  0  0  0  0  0  0
   -1.0099   45.2698   55.8630 C   0  0  0  0  0  0  0  0  0  0  0  0
    0.1229   45.6395   56.6036 C   0  0  0  0  0  0  0  0  0  0  0  0
    0.0352   46.1789   57.9626 C   0  0  0  0  0  0  0  0  0  0  0  0
   -0.9644   46.0199   58.8099 N   0  0  0  0  0  0  0  0  0  0  0  0
   -0.5676   46.7091   59.9178 C   0  0  0  0  0  0  0  0  0  0  0  0
    0.6247   47.2967   59.8216 N   0  0  0  0  0  0  0  0  0  0  0  0
    0.9841   46.9546   58.5744 N   0  0  0  0  0  0  0  0  0  0  0  0
    1.3918   45.4914   56.0150 C   0  0  0  0  0  0  0  0  0  0  0  0
    2.7378   46.7407   53.2489 H   0  0  0  0  0  0  0  0  0  0  0  0
    6.6814   45.2756   50.5206 H   0  0  0  0  0  0  0  0  0  0  0  0
    7.4715   48.3979   52.0277 H   0  0  0  0  0  0  0  0  0  0  0  0
    7.7681   48.0894   54.3026 H   0  0  0  0  0  0  0  0  0  0  0  0
    8.1362   46.3266   54.1165 H   0  0  0  0  0  0  0  0  0  0  0  0
    9.9254   48.6237   53.2121 H   0  0  0  0  0  0  0  0  0  0  0  0
   10.1382   47.6152   54.7055 H   0  0  0  0  0  0  0  0  0  0  0  0
   11.4242   47.0869   52.4135 H   0  0  0  0  0  0  0  0  0  0  0  0
   10.8412   45.7977   53.5722 H   0  0  0  0  0  0  0  0  0  0  0  0
   10.4182   45.6360   50.9436 H   0  0  0  0  0  0  0  0  0  0  0  0
    9.2265   45.0555   52.1836 H   0  0  0  0  0  0  0  0  0  0  0  0
    9.1728   47.7472   50.7563 H   0  0  0  0  0  0  0  0  0  0  0  0
    8.1036   46.3131   50.4333 H   0  0  0  0  0  0  0  0  0  0  0  0
    0.4832   44.1909   52.9880 H   0  0  0  0  0  0  0  0  0  0  0  0
   -1.7743   44.4567   54.0055 H   0  0  0  0  0  0  0  0  0  0  0  0
   -2.0111   45.3893   56.3029 H   0  0  0  0  0  0  0  0  0  0  0  0
   -1.1866   46.7752   60.8247 H   0  0  0  0  0  0  0  0  0  0  0  0
    1.8695   47.2858   58.2094 H   0  0  0  0  0  0  0  0  0  0  0  0
    2.2901   45.7731   56.5839 H   0  0  0  0  0  0  0  0  0  0  0  0
  1  2  2  0
  2  3  1  0
  3  4  1  0
  4  5  1  0
  5  6  2  0
  6  7  1  0
  7  8  1  0
  8  9  1  0
  9 10  1  0
 10 11  1  0
 11 12  1  0
 12 13  1  0
  7 14  1  0
  2 15  1  0
 15 16  2  0
 16 17  1  0
 17 18  2  0
 18 19  1  0
 19 20  1  0
 20 21  2  0
 21 22  1  0
 22 23  2  0
 23 24  1  0
 19 25  2  0
 14  4  2  0
 25 15  1  0
 13  8  1  0
 24 20  1  0
  3 26  1  0
  6 27  1  0
  8 28  1  0
  9 29  1  0
  9 30  1  0
 10 31  1  0
 10 32  1  0
 11 33  1  0
 11 34  1  0
 12 35  1  0
 12 36  1  0
 13 37  1  0
 13 38  1  0
 16 39  1  0
 17 40  1  0
 18 41  1  0
 22 42  1  0
 24 43  1  0
 25 44  1  0
M  END
>  <meeko>  (211) 
{"is_sidechain": false}

>  <CID>  (211) 
Z1657740785

>  <pose_index>  (211) 
2

>  <docking_score>  (211) 
-9.121

>  <rmsd_to_best_selected>  (211) 
0.6731070921118842

>  <MWT>  (211) 
337.38699999999966

>  <TPSA>  (211) 
101.38

>  <logP>  (211) 
2.8207000000000004

>  <HBD>  (211) 
2

>  <HBA>  (211) 
6

>  <SMILES>  (211) 
[H]c1nc(-c2c([H])c([H])c([H])c(C(=O)N([H])c3nc([H])n(C4([H])C([H])([H])C([H])([H])C([H])([H])C([H])([H])C4([H])[H])n3)c2[H])n([H])n1

$$$$
Z1657740785_pose5
     RDKit          3D

 44 47  0  0  0  0  0  0  0  0999 V2000
    3.7715   43.6619   54.3402 O   0  0  0  0  0  0  0  0  0  0  0  0
    3.0787   44.6605   54.1848 C   0  0  0  0  0  0  0  0  0  0  0  0
    3.3482   45.7445   53.3881 N   0  0  0  0  0  0  0  0  0  0  0  0
    4.4857   45.9170   52.6535 C   0  0  0  0  0  0  0  0  0  0  0  0
    4.7755   45.2628   51.4937 N   0  0  0  0  0  0  0  0  0  0  0  0
    5.9516   45.7351   51.1580 C   0  0  0  0  0  0  0  0  0  0  0  0
    6.3522   46.6416   52.0877 N   0  0  0  0  0  0  0  0  0  0  0  0
    7.5925   47.4024   52.1035 C   0  0  0  0  0  0  0  0  0  0  0  0
    8.1204   47.5715   53.5397 C   0  0  0  0  0  0  0  0  0  0  0  0
    9.6042   47.9130   53.5485 C   0  0  0  0  0  0  0  0  0  0  0  0
   10.4478   46.8066   52.9130 C   0  0  0  0  0  0  0  0  0  0  0  0
    9.7006   45.9958   51.8520 C   0  0  0  0  0  0  0  0  0  0  0  0
    8.6450   46.8295   51.1330 C   0  0  0  0  0  0  0  0  0  0  0  0
    5.4279   46.7745   53.0590 N   0  0  0  0  0  0  0  0  0  0  0  0
    1.7716   44.7180   54.9018 C   0  0  0  0  0  0  0  0  0  0  0  0
    0.7038   43.9653   54.3980 C   0  0  0  0  0  0  0  0  0  0  0  0
   -0.5360   43.9928   55.0339 C   0  0  0  0  0  0  0  0  0  0  0  0
   -0.7150   44.7645   56.1844 C   0  0  0  0  0  0  0  0  0  0  0  0
    0.3455   45.5091   56.7190 C   0  0  0  0  0  0  0  0  0  0  0  0
    0.2061   46.3244   57.9282 C   0  0  0  0  0  0  0  0  0  0  0  0
    1.0011   46.3129   58.9827 N   0  0  0  0  0  0  0  0  0  0  0  0
    0.4463   47.2342   59.8213 C   0  0  0  0  0  0  0  0  0  0  0  0
   -0.6546   47.8283   59.3612 N   0  0  0  0  0  0  0  0  0  0  0  0
   -0.7922   47.2324   58.1665 N   0  0  0  0  0  0  0  0  0  0  0  0
    1.5910   45.4749   56.0667 C   0  0  0  0  0  0  0  0  0  0  0  0
    2.6755   46.4802   53.2413 H   0  0  0  0  0  0  0  0  0  0  0  0
    6.5236   45.4436   50.2648 H   0  0  0  0  0  0  0  0  0  0  0  0
    7.3697   48.4117   51.7271 H   0  0  0  0  0  0  0  0  0  0  0  0
    7.5635   48.3818   54.0328 H   0  0  0  0  0  0  0  0  0  0  0  0
    7.9805   46.6205   54.0746 H   0  0  0  0  0  0  0  0  0  0  0  0
    9.7580   48.8454   52.9854 H   0  0  0  0  0  0  0  0  0  0  0  0
    9.9221   48.0254   54.5956 H   0  0  0  0  0  0  0  0  0  0  0  0
   11.3277   47.2684   52.4413 H   0  0  0  0  0  0  0  0  0  0  0  0
   10.7209   46.1083   53.7178 H   0  0  0  0  0  0  0  0  0  0  0  0
   10.4256   45.6261   51.1119 H   0  0  0  0  0  0  0  0  0  0  0  0
    9.1891   45.1639   52.3583 H   0  0  0  0  0  0  0  0  0  0  0  0
    9.1434   47.6642   50.6184 H   0  0  0  0  0  0  0  0  0  0  0  0
    8.1244   46.1726   50.4207 H   0  0  0  0  0  0  0  0  0  0  0  0
    0.8440   43.3501   53.4969 H   0  0  0  0  0  0  0  0  0  0  0  0
   -1.3742   43.4064   54.6295 H   0  0  0  0  0  0  0  0  0  0  0  0
   -1.6987   44.7880   56.6762 H   0  0  0  0  0  0  0  0  0  0  0  0
    0.8762   47.4699   60.8060 H   0  0  0  0  0  0  0  0  0  0  0  0
   -1.5792   47.4830   57.5795 H   0  0  0  0  0  0  0  0  0  0  0  0
    2.4343   46.0501   56.4766 H   0  0  0  0  0  0  0  0  0  0  0  0
  1  2  2  0
  2  3  1  0
  3  4  1  0
  4  5  1  0
  5  6  2  0
  6  7  1  0
  7  8  1  0
  8  9  1  0
  9 10  1  0
 10 11  1  0
 11 12  1  0
 12 13  1  0
  7 14  1  0
  2 15  1  0
 15 16  2  0
 16 17  1  0
 17 18  2  0
 18 19  1  0
 19 20  1  0
 20 21  2  0
 21 22  1  0
 22 23  2  0
 23 24  1  0
 19 25  2  0
 14  4  2  0
 25 15  1  0
 13  8  1  0
 24 20  1  0
  3 26  1  0
  6 27  1  0
  8 28  1  0
  9 29  1  0
  9 30  1  0
 10 31  1  0
 10 32  1  0
 11 33  1  0
 11 34  1  0
 12 35  1  0
 12 36  1  0
 13 37  1  0
 13 38  1  0
 16 39  1  0
 17 40  1  0
 18 41  1  0
 22 42  1  0
 24 43  1  0
 25 44  1  0
M  END
>  <meeko>  (212) 
{"is_sidechain": false}

>  <CID>  (212) 
Z1657740785

>  <pose_index>  (212) 
5

>  <docking_score>  (212) 
-8.636

>  <rmsd_to_best_selected>  (212) 
0.9967748901026161

>  <MWT>  (212) 
337.38699999999966

>  <TPSA>  (212) 
101.38

>  <logP>  (212) 
2.8207000000000004

>  <HBD>  (212) 
2

>  <HBA>  (212) 
6

>  <SMILES>  (212) 
[H]c1nc(-c2c([H])c([H])c([H])c(C(=O)N([H])c3nc([H])n(C4([H])C([H])([H])C([H])([H])C([H])([H])C([H])([H])C4([H])[H])n3)c2[H])n([H])n1

$$$$
Z1657740785_pose6
     RDKit          3D

 44 47  0  0  0  0  0  0  0  0999 V2000
    3.7208   43.7009   54.0522 O   0  0  0  0  0  0  0  0  0  0  0  0
    3.0571   44.7296   53.9976 C   0  0  0  0  0  0  0  0  0  0  0  0
    3.3301   45.8582   53.2687 N   0  0  0  0  0  0  0  0  0  0  0  0
    4.4411   46.0474   52.4995 C   0  0  0  0  0  0  0  0  0  0  0  0
    4.6247   45.5372   51.2493 N   0  0  0  0  0  0  0  0  0  0  0  0
    5.8156   45.9659   50.9106 C   0  0  0  0  0  0  0  0  0  0  0  0
    6.3293   46.7077   51.9270 N   0  0  0  0  0  0  0  0  0  0  0  0
    7.6242   47.3701   51.9707 C   0  0  0  0  0  0  0  0  0  0  0  0
    7.9934   47.7700   53.4113 C   0  0  0  0  0  0  0  0  0  0  0  0
    9.4916   48.0033   53.5561 C   0  0  0  0  0  0  0  0  0  0  0  0
   10.2968   46.7408   53.2464 C   0  0  0  0  0  0  0  0  0  0  0  0
    9.6083   45.7973   52.2568 C   0  0  0  0  0  0  0  0  0  0  0  0
    8.7261   46.5526   51.2668 C   0  0  0  0  0  0  0  0  0  0  0  0
    5.4663   46.7737   52.9585 N   0  0  0  0  0  0  0  0  0  0  0  0
    1.7831   44.7754   54.7737 C   0  0  0  0  0  0  0  0  0  0  0  0
    0.6879   44.0451   54.2964 C   0  0  0  0  0  0  0  0  0  0  0  0
   -0.5215   44.0637   54.9881 C   0  0  0  0  0  0  0  0  0  0  0  0
   -0.6440   44.8034   56.1669 C   0  0  0  0  0  0  0  0  0  0  0  0
    0.4462   45.5261   56.6743 C   0  0  0  0  0  0  0  0  0  0  0  0
    0.3677   46.3075   57.9110 C   0  0  0  0  0  0  0  0  0  0  0  0
    1.3791   46.8417   58.5706 N   0  0  0  0  0  0  0  0  0  0  0  0
    0.7868   47.4535   59.6376 C   0  0  0  0  0  0  0  0  0  0  0  0
   -0.5397   47.3355   59.6919 N   0  0  0  0  0  0  0  0  0  0  0  0
   -0.7832   46.6018   58.5958 N   0  0  0  0  0  0  0  0  0  0  0  0
    1.6605   45.5003   55.9664 C   0  0  0  0  0  0  0  0  0  0  0  0
    2.6778   46.6238   53.2040 H   0  0  0  0  0  0  0  0  0  0  0  0
    6.3197   45.7583   49.9552 H   0  0  0  0  0  0  0  0  0  0  0  0
    7.5413   48.3029   51.3936 H   0  0  0  0  0  0  0  0  0  0  0  0
    7.4600   48.6956   53.6737 H   0  0  0  0  0  0  0  0  0  0  0  0
    7.7040   46.9490   54.0837 H   0  0  0  0  0  0  0  0  0  0  0  0
    9.7966   48.7993   52.8608 H   0  0  0  0  0  0  0  0  0  0  0  0
    9.6933   48.2895   54.5989 H   0  0  0  0  0  0  0  0  0  0  0  0
   11.2655   47.0426   52.8214 H   0  0  0  0  0  0  0  0  0  0  0  0
   10.4059   46.1897   54.1921 H   0  0  0  0  0  0  0  0  0  0  0  0
   10.3783   45.2458   51.6974 H   0  0  0  0  0  0  0  0  0  0  0  0
    8.9664   45.1126   52.8305 H   0  0  0  0  0  0  0  0  0  0  0  0
    9.3570   47.2387   50.6826 H   0  0  0  0  0  0  0  0  0  0  0  0
    8.2341   45.8109   50.6204 H   0  0  0  0  0  0  0  0  0  0  0  0
    0.7825   43.4551   53.3728 H   0  0  0  0  0  0  0  0  0  0  0  0
   -1.3815   43.4948   54.6053 H   0  0  0  0  0  0  0  0  0  0  0  0
   -1.6046   44.8193   56.7025 H   0  0  0  0  0  0  0  0  0  0  0  0
    1.3621   48.0035   60.3968 H   0  0  0  0  0  0  0  0  0  0  0  0
   -1.7370   46.3360   58.3829 H   0  0  0  0  0  0  0  0  0  0  0  0
    2.5263   46.0570   56.3542 H   0  0  0  0  0  0  0  0  0  0  0  0
  1  2  2  0
  2  3  1  0
  3  4  1  0
  4  5  1  0
  5  6  2  0
  6  7  1  0
  7  8  1  0
  8  9  1  0
  9 10  1  0
 10 11  1  0
 11 12  1  0
 12 13  1  0
  7 14  1  0
  2 15  1  0
 15 16  2  0
 16 17  1  0
 17 18  2  0
 18 19  1  0
 19 20  1  0
 20 21  2  0
 21 22  1  0
 22 23  2  0
 23 24  1  0
 19 25  2  0
 14  4  2  0
 25 15  1  0
 13  8  1  0
 24 20  1  0
  3 26  1  0
  6 27  1  0
  8 28  1  0
  9 29  1  0
  9 30  1  0
 10 31  1  0
 10 32  1  0
 11 33  1  0
 11 34  1  0
 12 35  1  0
 12 36  1  0
 13 37  1  0
 13 38  1  0
 16 39  1  0
 17 40  1  0
 18 41  1  0
 22 42  1  0
 24 43  1  0
 25 44  1  0
M  END
>  <meeko>  (213) 
{"is_sidechain": false}

>  <CID>  (213) 
Z1657740785

>  <pose_index>  (213) 
6

>  <docking_score>  (213) 
-8.633

>  <rmsd_to_best_selected>  (213) 
1.1356629668797664

>  <MWT>  (213) 
337.38699999999966

>  <TPSA>  (213) 
101.38

>  <logP>  (213) 
2.8207000000000004

>  <HBD>  (213) 
2

>  <HBA>  (213) 
6

>  <SMILES>  (213) 
[H]c1nc(-c2c([H])c([H])c([H])c(C(=O)N([H])c3nc([H])n(C4([H])C([H])([H])C([H])([H])C([H])([H])C([H])([H])C4([H])[H])n3)c2[H])n([H])n1

$$$$
Z1657740785_pose7
     RDKit          3D

 44 47  0  0  0  0  0  0  0  0999 V2000
    3.2663   43.5520   53.7566 O   0  0  0  0  0  0  0  0  0  0  0  0
    2.8231   44.6716   53.9801 C   0  0  0  0  0  0  0  0  0  0  0  0
    3.3515   45.8718   53.5768 N   0  0  0  0  0  0  0  0  0  0  0  0
    4.5172   46.0245   52.8827 C   0  0  0  0  0  0  0  0  0  0  0  0
    4.6066   46.4023   51.5768 N   0  0  0  0  0  0  0  0  0  0  0  0
    5.8961   46.4069   51.3437 C   0  0  0  0  0  0  0  0  0  0  0  0
    6.5561   46.0418   52.4738 N   0  0  0  0  0  0  0  0  0  0  0  0
    7.9954   45.9170   52.6566 C   0  0  0  0  0  0  0  0  0  0  0  0
    8.7455   46.1871   51.3385 C   0  0  0  0  0  0  0  0  0  0  0  0
   10.2044   46.5412   51.5936 C   0  0  0  0  0  0  0  0  0  0  0  0
   10.3427   47.8142   52.4306 C   0  0  0  0  0  0  0  0  0  0  0  0
    9.1615   48.0672   53.3695 C   0  0  0  0  0  0  0  0  0  0  0  0
    8.5130   46.7660   53.8346 C   0  0  0  0  0  0  0  0  0  0  0  0
    5.6921   45.7902   53.4760 N   0  0  0  0  0  0  0  0  0  0  0  0
    1.5446   44.7740   54.7432 C   0  0  0  0  0  0  0  0  0  0  0  0
    0.4227   44.0939   54.2537 C   0  0  0  0  0  0  0  0  0  0  0  0
   -0.7919   44.1645   54.9333 C   0  0  0  0  0  0  0  0  0  0  0  0
   -0.8923   44.9075   56.1122 C   0  0  0  0  0  0  0  0  0  0  0  0
    0.2238   45.5795   56.6324 C   0  0  0  0  0  0  0  0  0  0  0  0
    0.1681   46.3621   57.8701 C   0  0  0  0  0  0  0  0  0  0  0  0
    1.0394   46.3308   58.8612 N   0  0  0  0  0  0  0  0  0  0  0  0
    0.5399   47.2254   59.7626 C   0  0  0  0  0  0  0  0  0  0  0  0
   -0.5979   47.8179   59.4018 N   0  0  0  0  0  0  0  0  0  0  0  0
   -0.8187   47.2528   58.2052 N   0  0  0  0  0  0  0  0  0  0  0  0
    1.4432   45.5018   55.9362 C   0  0  0  0  0  0  0  0  0  0  0  0
    2.8675   46.7440   53.7204 H   0  0  0  0  0  0  0  0  0  0  0  0
    6.3693   46.6654   50.3849 H   0  0  0  0  0  0  0  0  0  0  0  0
    8.2083   44.8744   52.9353 H   0  0  0  0  0  0  0  0  0  0  0  0
    8.7004   45.2857   50.7095 H   0  0  0  0  0  0  0  0  0  0  0  0
    8.2650   47.0385   50.8342 H   0  0  0  0  0  0  0  0  0  0  0  0
   10.6842   45.7090   52.1295 H   0  0  0  0  0  0  0  0  0  0  0  0
   10.6883   46.7172   50.6215 H   0  0  0  0  0  0  0  0  0  0  0  0
   11.2566   47.7328   53.0372 H   0  0  0  0  0  0  0  0  0  0  0  0
   10.3786   48.6583   51.7262 H   0  0  0  0  0  0  0  0  0  0  0  0
    9.5199   48.6203   54.2502 H   0  0  0  0  0  0  0  0  0  0  0  0
    8.4059   48.6455   52.8174 H   0  0  0  0  0  0  0  0  0  0  0  0
    9.2575   46.1796   54.3932 H   0  0  0  0  0  0  0  0  0  0  0  0
    7.6510   47.0264   54.4664 H   0  0  0  0  0  0  0  0  0  0  0  0
    0.5004   43.5020   53.3298 H   0  0  0  0  0  0  0  0  0  0  0  0
   -1.6725   43.6346   54.5411 H   0  0  0  0  0  0  0  0  0  0  0  0
   -1.8567   44.9662   56.6380 H   0  0  0  0  0  0  0  0  0  0  0  0
    1.0403   47.4417   60.7180 H   0  0  0  0  0  0  0  0  0  0  0  0
   -1.6492   47.5086   57.6853 H   0  0  0  0  0  0  0  0  0  0  0  0
    2.3289   46.0191   56.3335 H   0  0  0  0  0  0  0  0  0  0  0  0
  1  2  2  0
  2  3  1  0
  3  4  1  0
  4  5  1  0
  5  6  2  0
  6  7  1  0
  7  8  1  0
  8  9  1  0
  9 10  1  0
 10 11  1  0
 11 12  1  0
 12 13  1  0
  7 14  1  0
  2 15  1  0
 15 16  2  0
 16 17  1  0
 17 18  2  0
 18 19  1  0
 19 20  1  0
 20 21  2  0
 21 22  1  0
 22 23  2  0
 23 24  1  0
 19 25  2  0
 14  4  2  0
 25 15  1  0
 13  8  1  0
 24 20  1  0
  3 26  1  0
  6 27  1  0
  8 28  1  0
  9 29  1  0
  9 30  1  0
 10 31  1  0
 10 32  1  0
 11 33  1  0
 11 34  1  0
 12 35  1  0
 12 36  1  0
 13 37  1  0
 13 38  1  0
 16 39  1  0
 17 40  1  0
 18 41  1  0
 22 42  1  0
 24 43  1  0
 25 44  1  0
M  END
>  <meeko>  (214) 
{"is_sidechain": false}

>  <CID>  (214) 
Z1657740785

>  <pose_index>  (214) 
7

>  <docking_score>  (214) 
-8.61

>  <rmsd_to_best_selected>  (214) 
1.3850703045449084

>  <MWT>  (214) 
337.38699999999966

>  <TPSA>  (214) 
101.38

>  <logP>  (214) 
2.8207000000000004

>  <HBD>  (214) 
2

>  <HBA>  (214) 
6

>  <SMILES>  (214) 
[H]c1nc(-c2c([H])c([H])c([H])c(C(=O)N([H])c3nc([H])n(C4([H])C([H])([H])C([H])([H])C([H])([H])C([H])([H])C4([H])[H])n3)c2[H])n([H])n1

$$$$
Z1657740785_pose9
     RDKit          3D

 44 47  0  0  0  0  0  0  0  0999 V2000
    2.0602   46.7794   52.2440 O   0  0  0  0  0  0  0  0  0  0  0  0
    2.3487   46.4571   53.3903 C   0  0  0  0  0  0  0  0  0  0  0  0
    3.5350   46.6767   54.0440 N   0  0  0  0  0  0  0  0  0  0  0  0
    4.6378   47.2651   53.4947 C   0  0  0  0  0  0  0  0  0  0  0  0
    4.8252   48.6077   53.3659 N   0  0  0  0  0  0  0  0  0  0  0  0
    5.9987   48.7023   52.7888 C   0  0  0  0  0  0  0  0  0  0  0  0
    6.4943   47.4540   52.5782 N   0  0  0  0  0  0  0  0  0  0  0  0
    7.7664   47.1007   51.9637 C   0  0  0  0  0  0  0  0  0  0  0  0
    8.9280   47.8799   52.6082 C   0  0  0  0  0  0  0  0  0  0  0  0
   10.2646   47.1981   52.3468 C   0  0  0  0  0  0  0  0  0  0  0  0
   10.3128   45.7910   52.9444 C   0  0  0  0  0  0  0  0  0  0  0  0
    8.9437   45.1142   53.0405 C   0  0  0  0  0  0  0  0  0  0  0  0
    7.9996   45.5766   51.9346 C   0  0  0  0  0  0  0  0  0  0  0  0
    5.6376   46.5146   53.0223 N   0  0  0  0  0  0  0  0  0  0  0  0
    1.2987   45.7778   54.2062 C   0  0  0  0  0  0  0  0  0  0  0  0
    0.3930   44.9337   53.5534 C   0  0  0  0  0  0  0  0  0  0  0  0
   -0.6043   44.2825   54.2774 C   0  0  0  0  0  0  0  0  0  0  0  0
   -0.6982   44.4624   55.6589 C   0  0  0  0  0  0  0  0  0  0  0  0
    0.2119   45.2866   56.3375 C   0  0  0  0  0  0  0  0  0  0  0  0
    0.1581   45.4978   57.7857 C   0  0  0  0  0  0  0  0  0  0  0  0
   -0.8993   45.3540   58.5636 N   0  0  0  0  0  0  0  0  0  0  0  0
   -0.4340   45.6664   59.8080 C   0  0  0  0  0  0  0  0  0  0  0  0
    0.8539   46.0016   59.8628 N   0  0  0  0  0  0  0  0  0  0  0  0
    1.2073   45.8949   58.5729 N   0  0  0  0  0  0  0  0  0  0  0  0
    1.2120   45.9396   55.5955 C   0  0  0  0  0  0  0  0  0  0  0  0
    3.6534   46.4661   55.0219 H   0  0  0  0  0  0  0  0  0  0  0  0
    6.5021   49.6422   52.5182 H   0  0  0  0  0  0  0  0  0  0  0  0
    7.7253   47.4087   50.9085 H   0  0  0  0  0  0  0  0  0  0  0  0
    8.9556   48.8956   52.1867 H   0  0  0  0  0  0  0  0  0  0  0  0
    8.7624   47.9138   53.6951 H   0  0  0  0  0  0  0  0  0  0  0  0
   10.4222   47.1288   51.2604 H   0  0  0  0  0  0  0  0  0  0  0  0
   11.0530   47.7986   52.8240 H   0  0  0  0  0  0  0  0  0  0  0  0
   10.9641   45.1683   52.3134 H   0  0  0  0  0  0  0  0  0  0  0  0
   10.6935   45.8917   53.9714 H   0  0  0  0  0  0  0  0  0  0  0  0
    9.0791   44.0255   52.9600 H   0  0  0  0  0  0  0  0  0  0  0  0
    8.4958   45.3885   54.0070 H   0  0  0  0  0  0  0  0  0  0  0  0
    8.4339   45.3036   50.9615 H   0  0  0  0  0  0  0  0  0  0  0  0
    7.0287   45.0844   52.0932 H   0  0  0  0  0  0  0  0  0  0  0  0
    0.4684   44.7838   52.4663 H   0  0  0  0  0  0  0  0  0  0  0  0
   -1.3188   43.6258   53.7595 H   0  0  0  0  0  0  0  0  0  0  0  0
   -1.4942   43.9523   56.2212 H   0  0  0  0  0  0  0  0  0  0  0  0
   -1.0760   45.6430   60.7009 H   0  0  0  0  0  0  0  0  0  0  0  0
    2.1593   46.1116   58.3034 H   0  0  0  0  0  0  0  0  0  0  0  0
    1.9363   46.5862   56.1126 H   0  0  0  0  0  0  0  0  0  0  0  0
  1  2  2  0
  2  3  1  0
  3  4  1  0
  4  5  1  0
  5  6  2  0
  6  7  1  0
  7  8  1  0
  8  9  1  0
  9 10  1  0
 10 11  1  0
 11 12  1  0
 12 13  1  0
  7 14  1  0
  2 15  1  0
 15 16  2  0
 16 17  1  0
 17 18  2  0
 18 19  1  0
 19 20  1  0
 20 21  2  0
 21 22  1  0
 22 23  2  0
 23 24  1  0
 19 25  2  0
 14  4  2  0
 25 15  1  0
 13  8  1  0
 24 20  1  0
  3 26  1  0
  6 27  1  0
  8 28  1  0
  9 29  1  0
  9 30  1  0
 10 31  1  0
 10 32  1  0
 11 33  1  0
 11 34  1  0
 12 35  1  0
 12 36  1  0
 13 37  1  0
 13 38  1  0
 16 39  1  0
 17 40  1  0
 18 41  1  0
 22 42  1  0
 24 43  1  0
 25 44  1  0
M  END
>  <meeko>  (215) 
{"is_sidechain": false}

>  <CID>  (215) 
Z1657740785

>  <pose_index>  (215) 
9

>  <docking_score>  (215) 
-8.368

>  <rmsd_to_best_selected>  (215) 
1.5194137744293423

>  <MWT>  (215) 
337.38699999999966

>  <TPSA>  (215) 
101.38

>  <logP>  (215) 
2.8207000000000004

>  <HBD>  (215) 
2

>  <HBA>  (215) 
6

>  <SMILES>  (215) 
[H]c1nc(-c2c([H])c([H])c([H])c(C(=O)N([H])c3nc([H])n(C4([H])C([H])([H])C([H])([H])C([H])([H])C([H])([H])C4([H])[H])n3)c2[H])n([H])n1

$$$$
Z1657744734_pose8
     RDKit          3D

 41 44  0  0  0  0  0  0  0  0999 V2000
    2.9515   46.0518   52.0051 O   0  0  0  0  0  0  0  0  0  0  0  0
    3.2808   45.3675   52.9655 C   0  0  0  0  0  0  0  0  0  0  0  0
    4.4555   45.4035   53.6707 N   0  0  0  0  0  0  0  0  0  0  0  0
    5.5455   46.1546   53.3403 C   0  0  0  0  0  0  0  0  0  0  0  0
    5.5236   47.2459   52.5284 N   0  0  0  0  0  0  0  0  0  0  0  0
    6.7798   47.6193   52.4820 C   0  0  0  0  0  0  0  0  0  0  0  0
    7.5297   46.7689   53.2344 N   0  0  0  0  0  0  0  0  0  0  0  0
    8.9697   46.8289   53.4449 C   0  0  0  0  0  0  0  0  0  0  0  0
    9.5949   48.1106   52.8701 C   0  0  0  0  0  0  0  0  0  0  0  0
    9.8795   48.0357   51.3709 C   0  0  0  0  0  0  0  0  0  0  0  0
   10.6922   46.7972   51.0140 C   0  0  0  0  0  0  0  0  0  0  0  0
   10.0055   45.5208   51.4863 C   0  0  0  0  0  0  0  0  0  0  0  0
    9.7022   45.5566   52.9844 C   0  0  0  0  0  0  0  0  0  0  0  0
    6.7597   45.8098   53.7786 N   0  0  0  0  0  0  0  0  0  0  0  0
    2.3046   44.3879   53.4891 C   0  0  0  0  0  0  0  0  0  0  0  0
    2.7548   43.2085   54.1002 C   0  0  0  0  0  0  0  0  0  0  0  0
    1.8486   42.2634   54.5831 C   0  0  0  0  0  0  0  0  0  0  0  0
    0.4683   42.4752   54.4812 C   0  0  0  0  0  0  0  0  0  0  0  0
    0.0027   43.6678   53.8970 C   0  0  0  0  0  0  0  0  0  0  0  0
   -1.2585   44.2482   53.6338 C   0  0  0  0  0  0  0  0  0  0  0  0
   -1.1631   45.4502   53.0585 N   0  0  0  0  0  0  0  0  0  0  0  0
    0.1640   45.6573   52.9843 N   0  0  0  0  0  0  0  0  0  0  0  0
    0.9203   44.6002   53.4243 C   0  0  0  0  0  0  0  0  0  0  0  0
    4.5515   44.9335   54.5558 H   0  0  0  0  0  0  0  0  0  0  0  0
    7.1665   48.4841   51.9228 H   0  0  0  0  0  0  0  0  0  0  0  0
    9.1109   46.8750   54.5348 H   0  0  0  0  0  0  0  0  0  0  0  0
    8.9026   48.9460   53.0509 H   0  0  0  0  0  0  0  0  0  0  0  0
   10.5623   48.2507   53.3745 H   0  0  0  0  0  0  0  0  0  0  0  0
    8.9236   48.0039   50.8275 H   0  0  0  0  0  0  0  0  0  0  0  0
   10.4639   48.9235   51.0874 H   0  0  0  0  0  0  0  0  0  0  0  0
   10.8152   46.7533   49.9218 H   0  0  0  0  0  0  0  0  0  0  0  0
   11.6681   46.8692   51.5164 H   0  0  0  0  0  0  0  0  0  0  0  0
    9.0612   45.4004   50.9352 H   0  0  0  0  0  0  0  0  0  0  0  0
   10.6861   44.6777   51.2967 H   0  0  0  0  0  0  0  0  0  0  0  0
    9.0743   44.6878   53.2309 H   0  0  0  0  0  0  0  0  0  0  0  0
   10.6708   45.5411   53.5054 H   0  0  0  0  0  0  0  0  0  0  0  0
    3.8350   43.0263   54.2000 H   0  0  0  0  0  0  0  0  0  0  0  0
    2.2235   41.3404   55.0497 H   0  0  0  0  0  0  0  0  0  0  0  0
   -0.2414   41.7210   54.8522 H   0  0  0  0  0  0  0  0  0  0  0  0
   -2.2153   43.7628   53.8763 H   0  0  0  0  0  0  0  0  0  0  0  0
    0.4906   46.5481   52.6231 H   0  0  0  0  0  0  0  0  0  0  0  0
  1  2  2  0
  2  3  1  0
  3  4  1  0
  4  5  1  0
  5  6  2  0
  6  7  1  0
  7  8  1  0
  8  9  1  0
  9 10  1  0
 10 11  1  0
 11 12  1  0
 12 13  1  0
  7 14  1  0
  2 15  1  0
 15 16  2  0
 16 17  1  0
 17 18  2  0
 18 19  1  0
 19 20  1  0
 20 21  2  0
 21 22  1  0
 22 23  1  0
 14  4  2  0
 23 15  1  0
 13  8  1  0
 23 19  2  0
  3 24  1  0
  6 25  1  0
  8 26  1  0
  9 27  1  0
  9 28  1  0
 10 29  1  0
 10 30  1  0
 11 31  1  0
 11 32  1  0
 12 33  1  0
 12 34  1  0
 13 35  1  0
 13 36  1  0
 16 37  1  0
 17 38  1  0
 18 39  1  0
 20 40  1  0
 22 41  1  0
M  END
>  <meeko>  (216) 
{"is_sidechain": false}

>  <CID>  (216) 
Z1657744734

>  <pose_index>  (216) 
8

>  <docking_score>  (216) 
-8.274

>  <rmsd_to_best_selected>  (216) 
1.3288217816303274

>  <MWT>  (216) 
310.36099999999965

>  <TPSA>  (216) 
88.49000000000001

>  <logP>  (216) 
2.911900000000001

>  <HBD>  (216) 
2

>  <HBA>  (216) 
5

>  <SMILES>  (216) 
[H]c1c([H])c(C(=O)N([H])c2nc([H])n(C3([H])C([H])([H])C([H])([H])C([H])([H])C([H])([H])C3([H])[H])n2)c2c(c([H])nn2[H])c1[H]

$$$$
Z1657744734_pose2
     RDKit          3D

 41 44  0  0  0  0  0  0  0  0999 V2000
    2.9146   46.4902   52.0917 O   0  0  0  0  0  0  0  0  0  0  0  0
    3.3308   45.5493   52.7551 C   0  0  0  0  0  0  0  0  0  0  0  0
    4.6126   45.0741   52.8445 N   0  0  0  0  0  0  0  0  0  0  0  0
    5.6641   45.5108   52.0927 C   0  0  0  0  0  0  0  0  0  0  0  0
    5.9360   45.1048   50.8228 N   0  0  0  0  0  0  0  0  0  0  0  0
    7.0309   45.7599   50.5196 C   0  0  0  0  0  0  0  0  0  0  0  0
    7.4075   46.5235   51.5804 N   0  0  0  0  0  0  0  0  0  0  0  0
    8.5697   47.3989   51.6581 C   0  0  0  0  0  0  0  0  0  0  0  0
    9.8718   46.6811   51.2670 C   0  0  0  0  0  0  0  0  0  0  0  0
   10.4883   45.8656   52.4014 C   0  0  0  0  0  0  0  0  0  0  0  0
   10.6545   46.6981   53.6666 C   0  0  0  0  0  0  0  0  0  0  0  0
    9.3329   47.3112   54.1139 C   0  0  0  0  0  0  0  0  0  0  0  0
    8.6822   48.1372   53.0030 C   0  0  0  0  0  0  0  0  0  0  0  0
    6.5533   46.3642   52.6079 N   0  0  0  0  0  0  0  0  0  0  0  0
    2.3689   44.8235   53.6125 C   0  0  0  0  0  0  0  0  0  0  0  0
    2.6578   44.6140   54.9690 C   0  0  0  0  0  0  0  0  0  0  0  0
    1.7708   43.9149   55.7890 C   0  0  0  0  0  0  0  0  0  0  0  0
    0.5656   43.4167   55.2814 C   0  0  0  0  0  0  0  0  0  0  0  0
    0.2474   43.6470   53.9297 C   0  0  0  0  0  0  0  0  0  0  0  0
   -0.8320   43.3422   53.0712 C   0  0  0  0  0  0  0  0  0  0  0  0
   -0.6582   43.8145   51.8346 N   0  0  0  0  0  0  0  0  0  0  0  0
    0.5219   44.4574   51.9085 N   0  0  0  0  0  0  0  0  0  0  0  0
    1.1419   44.3484   53.1276 C   0  0  0  0  0  0  0  0  0  0  0  0
    4.8815   44.4183   53.5590 H   0  0  0  0  0  0  0  0  0  0  0  0
    7.5617   45.7011   49.5579 H   0  0  0  0  0  0  0  0  0  0  0  0
    8.4065   48.1822   50.9032 H   0  0  0  0  0  0  0  0  0  0  0  0
    9.6557   46.0022   50.4289 H   0  0  0  0  0  0  0  0  0  0  0  0
   10.6003   47.4605   50.9988 H   0  0  0  0  0  0  0  0  0  0  0  0
    9.8341   45.0091   52.6214 H   0  0  0  0  0  0  0  0  0  0  0  0
   11.4844   45.5277   52.0794 H   0  0  0  0  0  0  0  0  0  0  0  0
   11.0385   46.0527   54.4704 H   0  0  0  0  0  0  0  0  0  0  0  0
   11.3568   47.5164   53.4496 H   0  0  0  0  0  0  0  0  0  0  0  0
    8.6461   46.5027   54.4046 H   0  0  0  0  0  0  0  0  0  0  0  0
    9.5378   47.9816   54.9616 H   0  0  0  0  0  0  0  0  0  0  0  0
    7.6699   48.4185   53.3288 H   0  0  0  0  0  0  0  0  0  0  0  0
    9.3306   49.0096   52.8337 H   0  0  0  0  0  0  0  0  0  0  0  0
    3.5950   45.0053   55.3917 H   0  0  0  0  0  0  0  0  0  0  0  0
    2.0222   43.7536   56.8477 H   0  0  0  0  0  0  0  0  0  0  0  0
   -0.1226   42.8536   55.9289 H   0  0  0  0  0  0  0  0  0  0  0  0
   -1.7207   42.7764   53.3876 H   0  0  0  0  0  0  0  0  0  0  0  0
    0.8496   44.9556   51.0870 H   0  0  0  0  0  0  0  0  0  0  0  0
  1  2  2  0
  2  3  1  0
  3  4  1  0
  4  5  1  0
  5  6  2  0
  6  7  1  0
  7  8  1  0
  8  9  1  0
  9 10  1  0
 10 11  1  0
 11 12  1  0
 12 13  1  0
  7 14  1  0
  2 15  1  0
 15 16  2  0
 16 17  1  0
 17 18  2  0
 18 19  1  0
 19 20  1  0
 20 21  2  0
 21 22  1  0
 22 23  1  0
 14  4  2  0
 23 15  1  0
 13  8  1  0
 23 19  2  0
  3 24  1  0
  6 25  1  0
  8 26  1  0
  9 27  1  0
  9 28  1  0
 10 29  1  0
 10 30  1  0
 11 31  1  0
 11 32  1  0
 12 33  1  0
 12 34  1  0
 13 35  1  0
 13 36  1  0
 16 37  1  0
 17 38  1  0
 18 39  1  0
 20 40  1  0
 22 41  1  0
M  END
>  <meeko>  (217) 
{"is_sidechain": false}

>  <CID>  (217) 
Z1657744734

>  <pose_index>  (217) 
2

>  <docking_score>  (217) 
-9.052

>  <rmsd_to_best_selected>  (217) 
0.0

>  <MWT>  (217) 
310.36099999999965

>  <TPSA>  (217) 
88.49000000000001

>  <logP>  (217) 
2.911900000000001

>  <HBD>  (217) 
2

>  <HBA>  (217) 
5

>  <SMILES>  (217) 
[H]c1c([H])c(C(=O)N([H])c2nc([H])n(C3([H])C([H])([H])C([H])([H])C([H])([H])C([H])([H])C3([H])[H])n2)c2c(c([H])nn2[H])c1[H]

$$$$
Z1657744734_pose3
     RDKit          3D

 41 44  0  0  0  0  0  0  0  0999 V2000
    2.7507   46.7357   53.1478 O   0  0  0  0  0  0  0  0  0  0  0  0
    3.1708   45.6424   53.5033 C   0  0  0  0  0  0  0  0  0  0  0  0
    4.4709   45.2510   53.6867 N   0  0  0  0  0  0  0  0  0  0  0  0
    5.5670   46.0050   53.3840 C   0  0  0  0  0  0  0  0  0  0  0  0
    5.8826   47.1923   53.9687 N   0  0  0  0  0  0  0  0  0  0  0  0
    6.9839   47.5527   53.3564 C   0  0  0  0  0  0  0  0  0  0  0  0
    7.3094   46.6155   52.4254 N   0  0  0  0  0  0  0  0  0  0  0  0
    8.4569   46.6370   51.5283 C   0  0  0  0  0  0  0  0  0  0  0  0
    9.4525   45.5019   51.8213 C   0  0  0  0  0  0  0  0  0  0  0  0
   10.4181   45.8123   52.9622 C   0  0  0  0  0  0  0  0  0  0  0  0
   11.1221   47.1484   52.7563 C   0  0  0  0  0  0  0  0  0  0  0  0
   10.1237   48.2880   52.5824 C   0  0  0  0  0  0  0  0  0  0  0  0
    9.1369   48.0138   51.4475 C   0  0  0  0  0  0  0  0  0  0  0  0
    6.4018   45.6218   52.4139 N   0  0  0  0  0  0  0  0  0  0  0  0
    2.1844   44.5864   53.8183 C   0  0  0  0  0  0  0  0  0  0  0  0
    2.3738   43.7605   54.9359 C   0  0  0  0  0  0  0  0  0  0  0  0
    1.4628   42.7470   55.2385 C   0  0  0  0  0  0  0  0  0  0  0  0
    0.3316   42.5378   54.4404 C   0  0  0  0  0  0  0  0  0  0  0  0
    0.1127   43.3780   53.3339 C   0  0  0  0  0  0  0  0  0  0  0  0
   -0.8751   43.5063   52.3320 C   0  0  0  0  0  0  0  0  0  0  0  0
   -0.6278   44.5125   51.4882 N   0  0  0  0  0  0  0  0  0  0  0  0
    0.5040   45.0542   51.9722 N   0  0  0  0  0  0  0  0  0  0  0  0
    1.0290   44.3855   53.0490 C   0  0  0  0  0  0  0  0  0  0  0  0
    4.6991   44.3909   54.1592 H   0  0  0  0  0  0  0  0  0  0  0  0
    7.5557   48.4694   53.5630 H   0  0  0  0  0  0  0  0  0  0  0  0
    8.0540   46.4469   50.5226 H   0  0  0  0  0  0  0  0  0  0  0  0
    8.8822   44.5990   52.0848 H   0  0  0  0  0  0  0  0  0  0  0  0
   10.0597   45.3646   50.9144 H   0  0  0  0  0  0  0  0  0  0  0  0
    9.8548   45.8479   53.9064 H   0  0  0  0  0  0  0  0  0  0  0  0
   11.1828   45.0221   52.9893 H   0  0  0  0  0  0  0  0  0  0  0  0
   11.7538   47.3578   53.6321 H   0  0  0  0  0  0  0  0  0  0  0  0
   11.7290   47.0801   51.8415 H   0  0  0  0  0  0  0  0  0  0  0  0
    9.5616   48.4144   53.5195 H   0  0  0  0  0  0  0  0  0  0  0  0
   10.6868   49.1991   52.3316 H   0  0  0  0  0  0  0  0  0  0  0  0
    8.3555   48.7875   51.4742 H   0  0  0  0  0  0  0  0  0  0  0  0
    9.7158   48.0281   50.5123 H   0  0  0  0  0  0  0  0  0  0  0  0
    3.2510   43.9133   55.5819 H   0  0  0  0  0  0  0  0  0  0  0  0
    1.6358   42.1049   56.1147 H   0  0  0  0  0  0  0  0  0  0  0  0
   -0.3753   41.7283   54.6752 H   0  0  0  0  0  0  0  0  0  0  0  0
   -1.7534   42.8486   52.2548 H   0  0  0  0  0  0  0  0  0  0  0  0
    0.8692   45.8861   51.5186 H   0  0  0  0  0  0  0  0  0  0  0  0
  1  2  2  0
  2  3  1  0
  3  4  1  0
  4  5  1  0
  5  6  2  0
  6  7  1  0
  7  8  1  0
  8  9  1  0
  9 10  1  0
 10 11  1  0
 11 12  1  0
 12 13  1  0
  7 14  1  0
  2 15  1  0
 15 16  2  0
 16 17  1  0
 17 18  2  0
 18 19  1  0
 19 20  1  0
 20 21  2  0
 21 22  1  0
 22 23  1  0
 14  4  2  0
 23 15  1  0
 13  8  1  0
 23 19  2  0
  3 24  1  0
  6 25  1  0
  8 26  1  0
  9 27  1  0
  9 28  1  0
 10 29  1  0
 10 30  1  0
 11 31  1  0
 11 32  1  0
 12 33  1  0
 12 34  1  0
 13 35  1  0
 13 36  1  0
 16 37  1  0
 17 38  1  0
 18 39  1  0
 20 40  1  0
 22 41  1  0
M  END
>  <meeko>  (218) 
{"is_sidechain": false}

>  <CID>  (218) 
Z1657744734

>  <pose_index>  (218) 
3

>  <docking_score>  (218) 
-8.822

>  <rmsd_to_best_selected>  (218) 
1.7840412826212377

>  <MWT>  (218) 
310.36099999999965

>  <TPSA>  (218) 
88.49000000000001

>  <logP>  (218) 
2.911900000000001

>  <HBD>  (218) 
2

>  <HBA>  (218) 
5

>  <SMILES>  (218) 
[H]c1c([H])c(C(=O)N([H])c2nc([H])n(C3([H])C([H])([H])C([H])([H])C([H])([H])C([H])([H])C3([H])[H])n2)c2c(c([H])nn2[H])c1[H]

$$$$
Z1657744734_pose4
     RDKit          3D

 41 44  0  0  0  0  0  0  0  0999 V2000
    3.4638   44.8250   51.2371 O   0  0  0  0  0  0  0  0  0  0  0  0
    3.4929   44.8743   52.4600 C   0  0  0  0  0  0  0  0  0  0  0  0
    4.3224   45.6160   53.2607 N   0  0  0  0  0  0  0  0  0  0  0  0
    5.3731   46.3654   52.8195 C   0  0  0  0  0  0  0  0  0  0  0  0
    5.3850   47.7238   52.7482 N   0  0  0  0  0  0  0  0  0  0  0  0
    6.5705   47.9948   52.2548 C   0  0  0  0  0  0  0  0  0  0  0  0
    7.2395   46.8319   52.0283 N   0  0  0  0  0  0  0  0  0  0  0  0
    8.5833   46.6897   51.4831 C   0  0  0  0  0  0  0  0  0  0  0  0
    9.3288   45.4800   52.0690 C   0  0  0  0  0  0  0  0  0  0  0  0
    9.9750   45.7549   53.4249 C   0  0  0  0  0  0  0  0  0  0  0  0
   10.8525   47.0003   53.3878 C   0  0  0  0  0  0  0  0  0  0  0  0
   10.0716   48.2226   52.9164 C   0  0  0  0  0  0  0  0  0  0  0  0
    9.4073   47.9858   51.5586 C   0  0  0  0  0  0  0  0  0  0  0  0
    6.4818   45.7730   52.3667 N   0  0  0  0  0  0  0  0  0  0  0  0
    2.5026   44.0749   53.2122 C   0  0  0  0  0  0  0  0  0  0  0  0
    2.9251   42.9901   53.9957 C   0  0  0  0  0  0  0  0  0  0  0  0
    2.0034   42.2122   54.6976 C   0  0  0  0  0  0  0  0  0  0  0  0
    0.6352   42.5025   54.6478 C   0  0  0  0  0  0  0  0  0  0  0  0
    0.1992   43.6061   53.8905 C   0  0  0  0  0  0  0  0  0  0  0  0
   -1.0410   44.2224   53.6087 C   0  0  0  0  0  0  0  0  0  0  0  0
   -0.9182   45.2949   52.8226 N   0  0  0  0  0  0  0  0  0  0  0  0
    0.4096   45.3887   52.6276 N   0  0  0  0  0  0  0  0  0  0  0  0
    1.1322   44.3731   53.2000 C   0  0  0  0  0  0  0  0  0  0  0  0
    4.1404   45.7269   54.2446 H   0  0  0  0  0  0  0  0  0  0  0  0
    6.9618   49.0034   52.0556 H   0  0  0  0  0  0  0  0  0  0  0  0
    8.4517   46.4852   50.4103 H   0  0  0  0  0  0  0  0  0  0  0  0
    8.6119   44.6541   52.1871 H   0  0  0  0  0  0  0  0  0  0  0  0
   10.1415   45.2337   51.3698 H   0  0  0  0  0  0  0  0  0  0  0  0
    9.1831   45.8988   54.1747 H   0  0  0  0  0  0  0  0  0  0  0  0
   10.6102   44.8949   53.6832 H   0  0  0  0  0  0  0  0  0  0  0  0
   11.2417   47.1932   54.3984 H   0  0  0  0  0  0  0  0  0  0  0  0
   11.6740   46.8218   52.6784 H   0  0  0  0  0  0  0  0  0  0  0  0
    9.2929   48.4548   53.6577 H   0  0  0  0  0  0  0  0  0  0  0  0
   10.7786   49.0585   52.8091 H   0  0  0  0  0  0  0  0  0  0  0  0
    8.7387   48.8335   51.3480 H   0  0  0  0  0  0  0  0  0  0  0  0
   10.2172   47.8915   50.8201 H   0  0  0  0  0  0  0  0  0  0  0  0
    3.9968   42.7498   54.0573 H   0  0  0  0  0  0  0  0  0  0  0  0
    2.3565   41.3604   55.2974 H   0  0  0  0  0  0  0  0  0  0  0  0
   -0.0883   41.8779   55.1921 H   0  0  0  0  0  0  0  0  0  0  0  0
   -2.0041   43.8578   53.9955 H   0  0  0  0  0  0  0  0  0  0  0  0
    0.7609   46.1761   52.0916 H   0  0  0  0  0  0  0  0  0  0  0  0
  1  2  2  0
  2  3  1  0
  3  4  1  0
  4  5  1  0
  5  6  2  0
  6  7  1  0
  7  8  1  0
  8  9  1  0
  9 10  1  0
 10 11  1  0
 11 12  1  0
 12 13  1  0
  7 14  1  0
  2 15  1  0
 15 16  2  0
 16 17  1  0
 17 18  2  0
 18 19  1  0
 19 20  1  0
 20 21  2  0
 21 22  1  0
 22 23  1  0
 14  4  2  0
 23 15  1  0
 13  8  1  0
 23 19  2  0
  3 24  1  0
  6 25  1  0
  8 26  1  0
  9 27  1  0
  9 28  1  0
 10 29  1  0
 10 30  1  0
 11 31  1  0
 11 32  1  0
 12 33  1  0
 12 34  1  0
 13 35  1  0
 13 36  1  0
 16 37  1  0
 17 38  1  0
 18 39  1  0
 20 40  1  0
 22 41  1  0
M  END
>  <meeko>  (219) 
{"is_sidechain": false}

>  <CID>  (219) 
Z1657744734

>  <pose_index>  (219) 
4

>  <docking_score>  (219) 
-8.635

>  <rmsd_to_best_selected>  (219) 
1.7589699340440095

>  <MWT>  (219) 
310.36099999999965

>  <TPSA>  (219) 
88.49000000000001

>  <logP>  (219) 
2.911900000000001

>  <HBD>  (219) 
2

>  <HBA>  (219) 
5

>  <SMILES>  (219) 
[H]c1c([H])c(C(=O)N([H])c2nc([H])n(C3([H])C([H])([H])C([H])([H])C([H])([H])C([H])([H])C3([H])[H])n2)c2c(c([H])nn2[H])c1[H]

$$$$
Z1657744734_pose9
     RDKit          3D

 41 44  0  0  0  0  0  0  0  0999 V2000
    2.8055   45.9373   51.5522 O   0  0  0  0  0  0  0  0  0  0  0  0
    3.2885   45.4556   52.5689 C   0  0  0  0  0  0  0  0  0  0  0  0
    4.4802   45.7651   53.1719 N   0  0  0  0  0  0  0  0  0  0  0  0
    5.4201   46.6114   52.6618 C   0  0  0  0  0  0  0  0  0  0  0  0
    5.2075   47.9214   52.3587 N   0  0  0  0  0  0  0  0  0  0  0  0
    6.3649   48.3187   51.8867 C   0  0  0  0  0  0  0  0  0  0  0  0
    7.2372   47.2746   51.8969 N   0  0  0  0  0  0  0  0  0  0  0  0
    8.6243   47.2915   51.4529 C   0  0  0  0  0  0  0  0  0  0  0  0
    9.1628   45.8827   51.1554 C   0  0  0  0  0  0  0  0  0  0  0  0
    9.6354   45.1315   52.3988 C   0  0  0  0  0  0  0  0  0  0  0  0
   10.6222   45.9577   53.2140 C   0  0  0  0  0  0  0  0  0  0  0  0
   10.0352   47.3093   53.6036 C   0  0  0  0  0  0  0  0  0  0  0  0
    9.5490   48.0935   52.3848 C   0  0  0  0  0  0  0  0  0  0  0  0
    6.6453   46.1643   52.3737 N   0  0  0  0  0  0  0  0  0  0  0  0
    2.5073   44.4288   53.2916 C   0  0  0  0  0  0  0  0  0  0  0  0
    3.1381   43.2643   53.7532 C   0  0  0  0  0  0  0  0  0  0  0  0
    2.4140   42.2757   54.4210 C   0  0  0  0  0  0  0  0  0  0  0  0
    1.0425   42.4281   54.6560 C   0  0  0  0  0  0  0  0  0  0  0  0
    0.4019   43.6048   54.2259 C   0  0  0  0  0  0  0  0  0  0  0  0
   -0.9067   44.1316   54.2842 C   0  0  0  0  0  0  0  0  0  0  0  0
   -1.0017   45.3423   53.7271 N   0  0  0  0  0  0  0  0  0  0  0  0
    0.2594   45.6080   53.3407 N   0  0  0  0  0  0  0  0  0  0  0  0
    1.1408   44.5815   53.5646 C   0  0  0  0  0  0  0  0  0  0  0  0
    4.6957   45.4462   54.1026 H   0  0  0  0  0  0  0  0  0  0  0  0
    6.5943   49.3362   51.5375 H   0  0  0  0  0  0  0  0  0  0  0  0
    8.6255   47.8341   50.4961 H   0  0  0  0  0  0  0  0  0  0  0  0
    8.3617   45.2978   50.6797 H   0  0  0  0  0  0  0  0  0  0  0  0
   10.0383   46.0045   50.5007 H   0  0  0  0  0  0  0  0  0  0  0  0
    8.7632   44.8963   53.0264 H   0  0  0  0  0  0  0  0  0  0  0  0
   10.1446   44.2128   52.0720 H   0  0  0  0  0  0  0  0  0  0  0  0
   10.8813   45.4041   54.1286 H   0  0  0  0  0  0  0  0  0  0  0  0
   11.5148   46.1355   52.5962 H   0  0  0  0  0  0  0  0  0  0  0  0
    9.1856   47.1453   54.2828 H   0  0  0  0  0  0  0  0  0  0  0  0
   10.8268   47.8961   54.0924 H   0  0  0  0  0  0  0  0  0  0  0  0
    8.9999   48.9783   52.7393 H   0  0  0  0  0  0  0  0  0  0  0  0
   10.4419   48.3560   51.7984 H   0  0  0  0  0  0  0  0  0  0  0  0
    4.2169   43.1285   53.5868 H   0  0  0  0  0  0  0  0  0  0  0  0
    2.9270   41.3661   54.7667 H   0  0  0  0  0  0  0  0  0  0  0  0
    0.4736   41.6391   55.1697 H   0  0  0  0  0  0  0  0  0  0  0  0
   -1.7567   43.6021   54.7394 H   0  0  0  0  0  0  0  0  0  0  0  0
    0.4529   46.5158   52.9289 H   0  0  0  0  0  0  0  0  0  0  0  0
  1  2  2  0
  2  3  1  0
  3  4  1  0
  4  5  1  0
  5  6  2  0
  6  7  1  0
  7  8  1  0
  8  9  1  0
  9 10  1  0
 10 11  1  0
 11 12  1  0
 12 13  1  0
  7 14  1  0
  2 15  1  0
 15 16  2  0
 16 17  1  0
 17 18  2  0
 18 19  1  0
 19 20  1  0
 20 21  2  0
 21 22  1  0
 22 23  1  0
 14  4  2  0
 23 15  1  0
 13  8  1  0
 23 19  2  0
  3 24  1  0
  6 25  1  0
  8 26  1  0
  9 27  1  0
  9 28  1  0
 10 29  1  0
 10 30  1  0
 11 31  1  0
 11 32  1  0
 12 33  1  0
 12 34  1  0
 13 35  1  0
 13 36  1  0
 16 37  1  0
 17 38  1  0
 18 39  1  0
 20 40  1  0
 22 41  1  0
M  END
>  <meeko>  (220) 
{"is_sidechain": false}

>  <CID>  (220) 
Z1657744734

>  <pose_index>  (220) 
9

>  <docking_score>  (220) 
-7.958

>  <rmsd_to_best_selected>  (220) 
1.4088784807542234

>  <MWT>  (220) 
310.36099999999965

>  <TPSA>  (220) 
88.49000000000001

>  <logP>  (220) 
2.911900000000001

>  <HBD>  (220) 
2

>  <HBA>  (220) 
5

>  <SMILES>  (220) 
[H]c1c([H])c(C(=O)N([H])c2nc([H])n(C3([H])C([H])([H])C([H])([H])C([H])([H])C([H])([H])C3([H])[H])n2)c2c(c([H])nn2[H])c1[H]

$$$$
Z1673780356_pose5
     RDKit          3D

 42 44  0  0  0  0  0  0  0  0999 V2000
    6.3788   48.6079   54.3913 O   0  0  0  0  0  0  0  0  0  0  0  0
    6.4955   47.6816   53.5940 C   0  0  0  0  0  0  0  0  0  0  0  0
    5.4044   47.0063   53.1000 N   0  0  0  0  0  0  0  0  0  0  0  0
    4.0638   47.4854   53.3244 C   0  0  0  0  0  0  0  0  0  0  0  0
    3.1703   46.8581   52.3303 C   0  0  0  0  0  0  0  0  0  0  0  0
    3.3643   45.9998   51.2753 C   0  0  0  0  0  0  0  0  0  0  0  0
    2.0776   45.8248   50.7378 C   0  0  0  0  0  0  0  0  0  0  0  0
    1.1544   46.5233   51.4053 N   0  0  0  0  0  0  0  0  0  0  0  0
    1.8476   47.1736   52.4138 O   0  0  0  0  0  0  0  0  0  0  0  0
    7.8537   47.2371   53.1307 C   0  0  0  0  0  0  0  0  0  0  0  0
    8.8454   48.2371   53.1056 C   0  0  0  0  0  0  0  0  0  0  0  0
   10.1449   47.9441   52.6999 C   0  0  0  0  0  0  0  0  0  0  0  0
   10.4642   46.6499   52.3137 C   0  0  0  0  0  0  0  0  0  0  0  0
    9.4886   45.6487   52.3267 C   0  0  0  0  0  0  0  0  0  0  0  0
    8.1756   45.9202   52.7266 C   0  0  0  0  0  0  0  0  0  0  0  0
    7.1667   45.0024   52.7500 O   0  0  0  0  0  0  0  0  0  0  0  0
    6.8695   44.0574   51.7197 C   0  0  0  0  0  0  0  0  0  0  0  0
    6.6187   44.6904   50.3465 C   0  0  0  0  0  0  0  0  0  0  0  0
    6.4001   43.6274   49.2718 C   0  0  0  0  0  0  0  0  0  0  0  0
    5.3262   42.6217   49.6792 C   0  0  0  0  0  0  0  0  0  0  0  0
    5.6588   41.9528   51.0105 C   0  0  0  0  0  0  0  0  0  0  0  0
    5.8590   42.9777   52.1252 C   0  0  0  0  0  0  0  0  0  0  0  0
    5.5661   46.3886   52.3121 H   0  0  0  0  0  0  0  0  0  0  0  0
    3.7379   47.2145   54.3395 H   0  0  0  0  0  0  0  0  0  0  0  0
    4.0324   48.5802   53.2220 H   0  0  0  0  0  0  0  0  0  0  0  0
    4.3085   45.5529   50.9308 H   0  0  0  0  0  0  0  0  0  0  0  0
    1.8563   45.1872   49.8692 H   0  0  0  0  0  0  0  0  0  0  0  0
    8.5901   49.2627   53.4105 H   0  0  0  0  0  0  0  0  0  0  0  0
   10.9122   48.7322   52.6856 H   0  0  0  0  0  0  0  0  0  0  0  0
   11.4897   46.4108   51.9959 H   0  0  0  0  0  0  0  0  0  0  0  0
    9.7584   44.6283   52.0168 H   0  0  0  0  0  0  0  0  0  0  0  0
    7.8048   43.4946   51.5839 H   0  0  0  0  0  0  0  0  0  0  0  0
    5.7247   45.3286   50.4050 H   0  0  0  0  0  0  0  0  0  0  0  0
    7.5046   45.2817   50.0720 H   0  0  0  0  0  0  0  0  0  0  0  0
    6.0895   44.1220   48.3397 H   0  0  0  0  0  0  0  0  0  0  0  0
    7.3451   43.0814   49.1338 H   0  0  0  0  0  0  0  0  0  0  0  0
    4.3637   43.1458   49.7736 H   0  0  0  0  0  0  0  0  0  0  0  0
    5.2743   41.8414   48.9056 H   0  0  0  0  0  0  0  0  0  0  0  0
    4.8327   41.2815   51.2880 H   0  0  0  0  0  0  0  0  0  0  0  0
    6.5980   41.3935   50.8872 H   0  0  0  0  0  0  0  0  0  0  0  0
    4.8941   43.4566   52.3481 H   0  0  0  0  0  0  0  0  0  0  0  0
    6.2494   42.4539   53.0101 H   0  0  0  0  0  0  0  0  0  0  0  0
  1  2  2  0
  2  3  1  0
  3  4  1  0
  4  5  1  0
  5  6  2  0
  6  7  1  0
  7  8  2  0
  8  9  1  0
  2 10  1  0
 10 11  2  0
 11 12  1  0
 12 13  2  0
 13 14  1  0
 14 15  2  0
 15 16  1  0
 16 17  1  0
 17 18  1  0
 18 19  1  0
 19 20  1  0
 20 21  1  0
 21 22  1  0
  9  5  1  0
 15 10  1  0
 22 17  1  0
  3 23  1  0
  4 24  1  0
  4 25  1  0
  6 26  1  0
  7 27  1  0
 11 28  1  0
 12 29  1  0
 13 30  1  0
 14 31  1  0
 17 32  1  0
 18 33  1  0
 18 34  1  0
 19 35  1  0
 19 36  1  0
 20 37  1  0
 20 38  1  0
 21 39  1  0
 21 40  1  0
 22 41  1  0
 22 42  1  0
M  END
>  <meeko>  (221) 
{"is_sidechain": false}

>  <CID>  (221) 
Z1673780356

>  <pose_index>  (221) 
5

>  <docking_score>  (221) 
-8.522

>  <rmsd_to_best_selected>  (221) 
1.578102452842135

>  <MWT>  (221) 
300.3579999999996

>  <TPSA>  (221) 
64.36

>  <logP>  (221) 
3.3161000000000023

>  <HBD>  (221) 
1

>  <HBA>  (221) 
4

>  <SMILES>  (221) 
[H]c1noc(C([H])([H])N([H])C(=O)c2c([H])c([H])c([H])c([H])c2OC2([H])C([H])([H])C([H])([H])C([H])([H])C([H])([H])C2([H])[H])c1[H]

$$$$
Z1673780356_pose1
     RDKit          3D

 42 44  0  0  0  0  0  0  0  0999 V2000
    5.8670   46.2950   54.8710 O   0  0  0  0  0  0  0  0  0  0  0  0
    6.1540   46.7890   53.7840 C   0  0  0  0  0  0  0  0  0  0  0  0
    5.2100   47.3870   52.9860 N   0  0  0  0  0  0  0  0  0  0  0  0
    3.8800   47.6560   53.4730 C   0  0  0  0  0  0  0  0  0  0  0  0
    2.9450   46.7150   52.8240 C   0  0  0  0  0  0  0  0  0  0  0  0
    2.7990   46.2410   51.5430 C   0  0  0  0  0  0  0  0  0  0  0  0
    1.6870   45.3860   51.6220 C   0  0  0  0  0  0  0  0  0  0  0  0
    1.1780   45.3340   52.8560 N   0  0  0  0  0  0  0  0  0  0  0  0
    1.9770   46.1730   53.6160 O   0  0  0  0  0  0  0  0  0  0  0  0
    7.5670   46.7470   53.2750 C   0  0  0  0  0  0  0  0  0  0  0  0
    8.5690   46.9810   54.2380 C   0  0  0  0  0  0  0  0  0  0  0  0
    9.9160   46.9610   53.8860 C   0  0  0  0  0  0  0  0  0  0  0  0
   10.2740   46.7100   52.5690 C   0  0  0  0  0  0  0  0  0  0  0  0
    9.2910   46.4830   51.6010 C   0  0  0  0  0  0  0  0  0  0  0  0
    7.9310   46.5020   51.9300 C   0  0  0  0  0  0  0  0  0  0  0  0
    6.9150   46.3060   51.0410 O   0  0  0  0  0  0  0  0  0  0  0  0
    6.5610   45.0600   50.4360 C   0  0  0  0  0  0  0  0  0  0  0  0
    5.7200   44.1460   51.3350 C   0  0  0  0  0  0  0  0  0  0  0  0
    5.2970   42.8750   50.6020 C   0  0  0  0  0  0  0  0  0  0  0  0
    6.4870   42.1660   49.9630 C   0  0  0  0  0  0  0  0  0  0  0  0
    7.2450   43.0860   49.0100 C   0  0  0  0  0  0  0  0  0  0  0  0
    7.7150   44.3610   49.7080 C   0  0  0  0  0  0  0  0  0  0  0  0
    5.5510   47.9340   52.2020 H   0  0  0  0  0  0  0  0  0  0  0  0
    3.8489   47.5171   54.5638 H   0  0  0  0  0  0  0  0  0  0  0  0
    3.5951   48.6924   53.2392 H   0  0  0  0  0  0  0  0  0  0  0  0
    3.4110   46.4764   50.6598 H   0  0  0  0  0  0  0  0  0  0  0  0
    1.2824   44.8245   50.7670 H   0  0  0  0  0  0  0  0  0  0  0  0
    8.2833   47.1820   55.2811 H   0  0  0  0  0  0  0  0  0  0  0  0
   10.6903   47.1427   54.6459 H   0  0  0  0  0  0  0  0  0  0  0  0
   11.3366   46.6895   52.2852 H   0  0  0  0  0  0  0  0  0  0  0  0
    9.5923   46.2858   50.5616 H   0  0  0  0  0  0  0  0  0  0  0  0
    5.8735   45.3347   49.6225 H   0  0  0  0  0  0  0  0  0  0  0  0
    6.3142   43.8683   52.2181 H   0  0  0  0  0  0  0  0  0  0  0  0
    4.8121   44.6926   51.6298 H   0  0  0  0  0  0  0  0  0  0  0  0
    4.8195   42.1921   51.3201 H   0  0  0  0  0  0  0  0  0  0  0  0
    4.5983   43.1589   49.8013 H   0  0  0  0  0  0  0  0  0  0  0  0
    7.1716   41.8322   50.7566 H   0  0  0  0  0  0  0  0  0  0  0  0
    6.1074   41.3103   49.3853 H   0  0  0  0  0  0  0  0  0  0  0  0
    8.1223   42.5496   48.6194 H   0  0  0  0  0  0  0  0  0  0  0  0
    6.5630   43.3728   48.1960 H   0  0  0  0  0  0  0  0  0  0  0  0
    8.4945   44.1016   50.4396 H   0  0  0  0  0  0  0  0  0  0  0  0
    8.1084   45.0480   48.9443 H   0  0  0  0  0  0  0  0  0  0  0  0
  1  2  2  0
  2  3  1  0
  3  4  1  0
  4  5  1  0
  5  6  2  0
  6  7  1  0
  7  8  2  0
  8  9  1  0
  2 10  1  0
 10 11  2  0
 11 12  1  0
 12 13  2  0
 13 14  1  0
 14 15  2  0
 15 16  1  0
 16 17  1  0
 17 18  1  0
 18 19  1  0
 19 20  1  0
 20 21  1  0
 21 22  1  0
  9  5  1  0
 15 10  1  0
 22 17  1  0
  3 23  1  0
  4 24  1  0
  4 25  1  0
  6 26  1  0
  7 27  1  0
 11 28  1  0
 12 29  1  0
 13 30  1  0
 14 31  1  0
 17 32  1  0
 18 33  1  0
 18 34  1  0
 19 35  1  0
 19 36  1  0
 20 37  1  0
 20 38  1  0
 21 39  1  0
 21 40  1  0
 22 41  1  0
 22 42  1  0
M  END
>  <meeko>  (222) 
{"is_sidechain": false}

>  <CID>  (222) 
Z1673780356

>  <pose_index>  (222) 
1

>  <docking_score>  (222) 
-9.033

>  <rmsd_to_best_selected>  (222) 
0.0

>  <MWT>  (222) 
300.3579999999996

>  <TPSA>  (222) 
64.36

>  <logP>  (222) 
3.3161000000000023

>  <HBD>  (222) 
1

>  <HBA>  (222) 
4

>  <SMILES>  (222) 
[H]c1noc(C([H])([H])N([H])C(=O)c2c([H])c([H])c([H])c([H])c2OC2([H])C([H])([H])C([H])([H])C([H])([H])C([H])([H])C2([H])[H])c1[H]

$$$$
Z1673780356_pose2
     RDKit          3D

 42 44  0  0  0  0  0  0  0  0999 V2000
    6.1095   46.1335   54.9223 O   0  0  0  0  0  0  0  0  0  0  0  0
    6.3261   46.7041   53.8577 C   0  0  0  0  0  0  0  0  0  0  0  0
    5.3130   47.2392   53.0993 N   0  0  0  0  0  0  0  0  0  0  0  0
    3.9708   47.3470   53.6153 C   0  0  0  0  0  0  0  0  0  0  0  0
    3.0608   46.6166   52.7101 C   0  0  0  0  0  0  0  0  0  0  0  0
    2.3999   45.4154   52.7820 C   0  0  0  0  0  0  0  0  0  0  0  0
    1.7205   45.3264   51.5551 C   0  0  0  0  0  0  0  0  0  0  0  0
    1.9453   46.3905   50.7781 N   0  0  0  0  0  0  0  0  0  0  0  0
    2.7910   47.2067   51.5115 O   0  0  0  0  0  0  0  0  0  0  0  0
    7.7275   46.8304   53.3288 C   0  0  0  0  0  0  0  0  0  0  0  0
    8.6880   47.2853   54.2539 C   0  0  0  0  0  0  0  0  0  0  0  0
   10.0222   47.4363   53.8816 C   0  0  0  0  0  0  0  0  0  0  0  0
   10.4066   47.1370   52.5823 C   0  0  0  0  0  0  0  0  0  0  0  0
    9.4628   46.6922   51.6522 C   0  0  0  0  0  0  0  0  0  0  0  0
    8.1173   46.5365   52.0013 C   0  0  0  0  0  0  0  0  0  0  0  0
    7.1360   46.1236   51.1471 O   0  0  0  0  0  0  0  0  0  0  0  0
    6.8297   44.7657   50.8180 C   0  0  0  0  0  0  0  0  0  0  0  0
    7.6786   44.1933   49.6781 C   0  0  0  0  0  0  0  0  0  0  0  0
    7.3700   42.7174   49.4359 C   0  0  0  0  0  0  0  0  0  0  0  0
    5.8742   42.4733   49.2577 C   0  0  0  0  0  0  0  0  0  0  0  0
    5.0743   42.9821   50.4550 C   0  0  0  0  0  0  0  0  0  0  0  0
    5.3297   44.4644   50.7179 C   0  0  0  0  0  0  0  0  0  0  0  0
    5.5832   47.8532   52.3383 H   0  0  0  0  0  0  0  0  0  0  0  0
    3.9241   46.9073   54.6225 H   0  0  0  0  0  0  0  0  0  0  0  0
    3.6740   48.4045   53.6754 H   0  0  0  0  0  0  0  0  0  0  0  0
    2.4018   44.6901   53.6090 H   0  0  0  0  0  0  0  0  0  0  0  0
    1.0790   44.4803   51.2679 H   0  0  0  0  0  0  0  0  0  0  0  0
    8.3808   47.5242   55.2827 H   0  0  0  0  0  0  0  0  0  0  0  0
   10.7649   47.7900   54.6119 H   0  0  0  0  0  0  0  0  0  0  0  0
   11.4590   47.2503   52.2829 H   0  0  0  0  0  0  0  0  0  0  0  0
    9.7842   46.4601   50.6261 H   0  0  0  0  0  0  0  0  0  0  0  0
    7.1492   44.1892   51.6986 H   0  0  0  0  0  0  0  0  0  0  0  0
    7.4685   44.7580   48.7578 H   0  0  0  0  0  0  0  0  0  0  0  0
    8.7384   44.2823   49.9593 H   0  0  0  0  0  0  0  0  0  0  0  0
    7.8952   42.3882   48.5271 H   0  0  0  0  0  0  0  0  0  0  0  0
    7.7069   42.1487   50.3151 H   0  0  0  0  0  0  0  0  0  0  0  0
    5.5327   42.9963   48.3522 H   0  0  0  0  0  0  0  0  0  0  0  0
    5.7109   41.3890   49.1709 H   0  0  0  0  0  0  0  0  0  0  0  0
    4.0025   42.8352   50.2558 H   0  0  0  0  0  0  0  0  0  0  0  0
    5.3918   42.4171   51.3439 H   0  0  0  0  0  0  0  0  0  0  0  0
    4.9009   45.0530   49.8934 H   0  0  0  0  0  0  0  0  0  0  0  0
    4.8587   44.7319   51.6753 H   0  0  0  0  0  0  0  0  0  0  0  0
  1  2  2  0
  2  3  1  0
  3  4  1  0
  4  5  1  0
  5  6  2  0
  6  7  1  0
  7  8  2  0
  8  9  1  0
  2 10  1  0
 10 11  2  0
 11 12  1  0
 12 13  2  0
 13 14  1  0
 14 15  2  0
 15 16  1  0
 16 17  1  0
 17 18  1  0
 18 19  1  0
 19 20  1  0
 20 21  1  0
 21 22  1  0
  9  5  1  0
 15 10  1  0
 22 17  1  0
  3 23  1  0
  4 24  1  0
  4 25  1  0
  6 26  1  0
  7 27  1  0
 11 28  1  0
 12 29  1  0
 13 30  1  0
 14 31  1  0
 17 32  1  0
 18 33  1  0
 18 34  1  0
 19 35  1  0
 19 36  1  0
 20 37  1  0
 20 38  1  0
 21 39  1  0
 21 40  1  0
 22 41  1  0
 22 42  1  0
M  END
>  <meeko>  (223) 
{"is_sidechain": false}

>  <CID>  (223) 
Z1673780356

>  <pose_index>  (223) 
2

>  <docking_score>  (223) 
-8.93

>  <rmsd_to_best_selected>  (223) 
1.2306349098333451

>  <MWT>  (223) 
300.3579999999996

>  <TPSA>  (223) 
64.36

>  <logP>  (223) 
3.3161000000000023

>  <HBD>  (223) 
1

>  <HBA>  (223) 
4

>  <SMILES>  (223) 
[H]c1noc(C([H])([H])N([H])C(=O)c2c([H])c([H])c([H])c([H])c2OC2([H])C([H])([H])C([H])([H])C([H])([H])C([H])([H])C2([H])[H])c1[H]

$$$$
Z1673780356_pose6
     RDKit          3D

 42 44  0  0  0  0  0  0  0  0999 V2000
    6.1472   48.6702   51.7616 O   0  0  0  0  0  0  0  0  0  0  0  0
    6.3495   47.8133   52.6170 C   0  0  0  0  0  0  0  0  0  0  0  0
    5.3819   47.4435   53.5198 N   0  0  0  0  0  0  0  0  0  0  0  0
    4.0167   47.8858   53.3755 C   0  0  0  0  0  0  0  0  0  0  0  0
    3.3241   46.9702   52.4470 C   0  0  0  0  0  0  0  0  0  0  0  0
    3.0687   46.9880   51.0975 C   0  0  0  0  0  0  0  0  0  0  0  0
    2.3408   45.8071   50.8735 C   0  0  0  0  0  0  0  0  0  0  0  0
    2.1545   45.1106   51.9982 N   0  0  0  0  0  0  0  0  0  0  0  0
    2.7794   45.8460   52.9922 O   0  0  0  0  0  0  0  0  0  0  0  0
    7.6865   47.1345   52.7175 C   0  0  0  0  0  0  0  0  0  0  0  0
    8.8081   47.9809   52.6237 C   0  0  0  0  0  0  0  0  0  0  0  0
   10.0990   47.4674   52.7091 C   0  0  0  0  0  0  0  0  0  0  0  0
   10.2819   46.1030   52.8868 C   0  0  0  0  0  0  0  0  0  0  0  0
    9.1775   45.2488   52.9730 C   0  0  0  0  0  0  0  0  0  0  0  0
    7.8715   45.7415   52.8860 C   0  0  0  0  0  0  0  0  0  0  0  0
    6.7463   44.9717   52.9462 O   0  0  0  0  0  0  0  0  0  0  0  0
    6.2715   44.1017   51.9151 C   0  0  0  0  0  0  0  0  0  0  0  0
    7.1363   42.8534   51.7055 C   0  0  0  0  0  0  0  0  0  0  0  0
    6.5289   41.9219   50.6596 C   0  0  0  0  0  0  0  0  0  0  0  0
    6.2067   42.6583   49.3626 C   0  0  0  0  0  0  0  0  0  0  0  0
    5.2732   43.8429   49.6049 C   0  0  0  0  0  0  0  0  0  0  0  0
    5.8541   44.8199   50.6260 C   0  0  0  0  0  0  0  0  0  0  0  0
    5.5582   46.6067   54.0643 H   0  0  0  0  0  0  0  0  0  0  0  0
    3.5160   47.8702   54.3548 H   0  0  0  0  0  0  0  0  0  0  0  0
    3.9925   48.9124   52.9811 H   0  0  0  0  0  0  0  0  0  0  0  0
    3.3655   47.7504   50.3622 H   0  0  0  0  0  0  0  0  0  0  0  0
    1.9679   45.4930   49.8875 H   0  0  0  0  0  0  0  0  0  0  0  0
    8.6621   49.0618   52.4811 H   0  0  0  0  0  0  0  0  0  0  0  0
   10.9679   48.1380   52.6363 H   0  0  0  0  0  0  0  0  0  0  0  0
   11.2995   45.6918   52.9603 H   0  0  0  0  0  0  0  0  0  0  0  0
    9.3393   44.1697   53.1117 H   0  0  0  0  0  0  0  0  0  0  0  0
    5.3233   43.7030   52.3048 H   0  0  0  0  0  0  0  0  0  0  0  0
    8.1368   43.1638   51.3699 H   0  0  0  0  0  0  0  0  0  0  0  0
    7.1950   42.3096   52.6599 H   0  0  0  0  0  0  0  0  0  0  0  0
    7.2448   41.1154   50.4426 H   0  0  0  0  0  0  0  0  0  0  0  0
    5.5896   41.5185   51.0657 H   0  0  0  0  0  0  0  0  0  0  0  0
    7.1436   43.0270   48.9194 H   0  0  0  0  0  0  0  0  0  0  0  0
    5.7011   41.9551   48.6845 H   0  0  0  0  0  0  0  0  0  0  0  0
    5.1153   44.3729   48.6540 H   0  0  0  0  0  0  0  0  0  0  0  0
    4.3234   43.4556   50.0024 H   0  0  0  0  0  0  0  0  0  0  0  0
    6.7358   45.3116   50.1890 H   0  0  0  0  0  0  0  0  0  0  0  0
    5.0789   45.5586   50.8774 H   0  0  0  0  0  0  0  0  0  0  0  0
  1  2  2  0
  2  3  1  0
  3  4  1  0
  4  5  1  0
  5  6  2  0
  6  7  1  0
  7  8  2  0
  8  9  1  0
  2 10  1  0
 10 11  2  0
 11 12  1  0
 12 13  2  0
 13 14  1  0
 14 15  2  0
 15 16  1  0
 16 17  1  0
 17 18  1  0
 18 19  1  0
 19 20  1  0
 20 21  1  0
 21 22  1  0
  9  5  1  0
 15 10  1  0
 22 17  1  0
  3 23  1  0
  4 24  1  0
  4 25  1  0
  6 26  1  0
  7 27  1  0
 11 28  1  0
 12 29  1  0
 13 30  1  0
 14 31  1  0
 17 32  1  0
 18 33  1  0
 18 34  1  0
 19 35  1  0
 19 36  1  0
 20 37  1  0
 20 38  1  0
 21 39  1  0
 21 40  1  0
 22 41  1  0
 22 42  1  0
M  END
>  <meeko>  (224) 
{"is_sidechain": false}

>  <CID>  (224) 
Z1673780356

>  <pose_index>  (224) 
6

>  <docking_score>  (224) 
-8.519

>  <rmsd_to_best_selected>  (224) 
1.8302590644113153

>  <MWT>  (224) 
300.3579999999996

>  <TPSA>  (224) 
64.36

>  <logP>  (224) 
3.3161000000000023

>  <HBD>  (224) 
1

>  <HBA>  (224) 
4

>  <SMILES>  (224) 
[H]c1noc(C([H])([H])N([H])C(=O)c2c([H])c([H])c([H])c([H])c2OC2([H])C([H])([H])C([H])([H])C([H])([H])C([H])([H])C2([H])[H])c1[H]

$$$$
Z1673780356_pose9
     RDKit          3D

 42 44  0  0  0  0  0  0  0  0999 V2000
    6.1274   48.0543   54.2199 O   0  0  0  0  0  0  0  0  0  0  0  0
    6.5678   47.5775   53.1776 C   0  0  0  0  0  0  0  0  0  0  0  0
    5.8326   47.5654   52.0161 N   0  0  0  0  0  0  0  0  0  0  0  0
    4.5972   48.3018   51.9059 C   0  0  0  0  0  0  0  0  0  0  0  0
    3.5064   47.3461   51.6276 C   0  0  0  0  0  0  0  0  0  0  0  0
    2.7640   47.0378   50.5138 C   0  0  0  0  0  0  0  0  0  0  0  0
    1.8783   46.0432   50.9601 C   0  0  0  0  0  0  0  0  0  0  0  0
    2.0534   45.7564   52.2528 N   0  0  0  0  0  0  0  0  0  0  0  0
    3.0871   46.5791   52.6729 O   0  0  0  0  0  0  0  0  0  0  0  0
    7.9402   46.9685   53.1344 C   0  0  0  0  0  0  0  0  0  0  0  0
    9.0127   47.8820   53.1525 C   0  0  0  0  0  0  0  0  0  0  0  0
   10.3312   47.4364   53.1227 C   0  0  0  0  0  0  0  0  0  0  0  0
   10.5908   46.0733   53.0736 C   0  0  0  0  0  0  0  0  0  0  0  0
    9.5366   45.1553   53.0475 C   0  0  0  0  0  0  0  0  0  0  0  0
    8.2040   45.5801   53.0719 C   0  0  0  0  0  0  0  0  0  0  0  0
    7.1234   44.7470   53.0342 O   0  0  0  0  0  0  0  0  0  0  0  0
    6.5416   44.1846   51.8553 C   0  0  0  0  0  0  0  0  0  0  0  0
    5.0697   43.7868   52.0155 C   0  0  0  0  0  0  0  0  0  0  0  0
    4.4812   43.2792   50.7013 C   0  0  0  0  0  0  0  0  0  0  0  0
    5.3409   42.1815   50.0811 C   0  0  0  0  0  0  0  0  0  0  0  0
    6.7768   42.6484   49.8600 C   0  0  0  0  0  0  0  0  0  0  0  0
    7.4191   43.1387   51.1559 C   0  0  0  0  0  0  0  0  0  0  0  0
    6.3267   47.3314   51.1624 H   0  0  0  0  0  0  0  0  0  0  0  0
    4.3953   48.8313   52.8487 H   0  0  0  0  0  0  0  0  0  0  0  0
    4.6690   49.0396   51.0932 H   0  0  0  0  0  0  0  0  0  0  0  0
    2.8444   47.4699   49.5054 H   0  0  0  0  0  0  0  0  0  0  0  0
    1.1277   45.5570   50.3196 H   0  0  0  0  0  0  0  0  0  0  0  0
    8.8055   48.9617   53.1907 H   0  0  0  0  0  0  0  0  0  0  0  0
   11.1608   48.1585   53.1379 H   0  0  0  0  0  0  0  0  0  0  0  0
   11.6304   45.7142   53.0551 H   0  0  0  0  0  0  0  0  0  0  0  0
    9.7593   44.0788   53.0070 H   0  0  0  0  0  0  0  0  0  0  0  0
    6.5130   45.0170   51.1368 H   0  0  0  0  0  0  0  0  0  0  0  0
    4.9947   42.9914   52.7716 H   0  0  0  0  0  0  0  0  0  0  0  0
    4.5034   44.6771   52.3262 H   0  0  0  0  0  0  0  0  0  0  0  0
    3.4753   42.8777   50.8934 H   0  0  0  0  0  0  0  0  0  0  0  0
    4.4428   44.1225   49.9960 H   0  0  0  0  0  0  0  0  0  0  0  0
    5.3484   41.3112   50.7539 H   0  0  0  0  0  0  0  0  0  0  0  0
    4.9105   41.9191   49.1034 H   0  0  0  0  0  0  0  0  0  0  0  0
    7.3676   41.8088   49.4651 H   0  0  0  0  0  0  0  0  0  0  0  0
    6.7581   43.4873   49.1486 H   0  0  0  0  0  0  0  0  0  0  0  0
    7.5615   42.2820   51.8310 H   0  0  0  0  0  0  0  0  0  0  0  0
    8.3837   43.6059   50.9087 H   0  0  0  0  0  0  0  0  0  0  0  0
  1  2  2  0
  2  3  1  0
  3  4  1  0
  4  5  1  0
  5  6  2  0
  6  7  1  0
  7  8  2  0
  8  9  1  0
  2 10  1  0
 10 11  2  0
 11 12  1  0
 12 13  2  0
 13 14  1  0
 14 15  2  0
 15 16  1  0
 16 17  1  0
 17 18  1  0
 18 19  1  0
 19 20  1  0
 20 21  1  0
 21 22  1  0
  9  5  1  0
 15 10  1  0
 22 17  1  0
  3 23  1  0
  4 24  1  0
  4 25  1  0
  6 26  1  0
  7 27  1  0
 11 28  1  0
 12 29  1  0
 13 30  1  0
 14 31  1  0
 17 32  1  0
 18 33  1  0
 18 34  1  0
 19 35  1  0
 19 36  1  0
 20 37  1  0
 20 38  1  0
 21 39  1  0
 21 40  1  0
 22 41  1  0
 22 42  1  0
M  END
>  <meeko>  (225) 
{"is_sidechain": false}

>  <CID>  (225) 
Z1673780356

>  <pose_index>  (225) 
9

>  <docking_score>  (225) 
-8.217

>  <rmsd_to_best_selected>  (225) 
1.194358973232307

>  <MWT>  (225) 
300.3579999999996

>  <TPSA>  (225) 
64.36

>  <logP>  (225) 
3.3161000000000023

>  <HBD>  (225) 
1

>  <HBA>  (225) 
4

>  <SMILES>  (225) 
[H]c1noc(C([H])([H])N([H])C(=O)c2c([H])c([H])c([H])c([H])c2OC2([H])C([H])([H])C([H])([H])C([H])([H])C([H])([H])C2([H])[H])c1[H]

$$$$
Z1677967961_pose6
     RDKit          3D

 46 49  0  0  0  0  0  0  0  0999 V2000
    7.0160   44.4693   54.5861 O   0  0  0  0  0  0  0  0  0  0  0  0
    6.7863   45.4140   53.8354 C   0  0  0  0  0  0  0  0  0  0  0  0
    5.5475   45.9259   53.5472 N   0  0  0  0  0  0  0  0  0  0  0  0
    4.3556   45.5023   54.0528 C   0  0  0  0  0  0  0  0  0  0  0  0
    3.8998   45.5995   55.3023 N   0  0  0  0  0  0  0  0  0  0  0  0
    2.6959   45.0253   55.2068 N   0  0  0  0  0  0  0  0  0  0  0  0
    2.4485   44.6110   53.9335 C   0  0  0  0  0  0  0  0  0  0  0  0
    1.1505   43.9190   53.4505 C   0  0  0  0  0  0  0  0  0  0  0  0
    1.1765   42.3699   53.4499 C   0  0  0  0  0  0  0  0  0  0  0  0
    0.3890   42.4320   52.1245 C   0  0  0  0  0  0  0  0  0  0  0  0
    0.9985   43.8332   51.9116 C   0  0  0  0  0  0  0  0  0  0  0  0
    3.4859   44.9009   53.1815 N   0  0  0  0  0  0  0  0  0  0  0  0
    7.9589   46.0934   53.1684 C   0  0  0  0  0  0  0  0  0  0  0  0
    9.0359   46.4435   54.0037 C   0  0  0  0  0  0  0  0  0  0  0  0
   10.1672   47.0843   53.4960 C   0  0  0  0  0  0  0  0  0  0  0  0
   10.2391   47.3815   52.1404 C   0  0  0  0  0  0  0  0  0  0  0  0
    9.1835   47.0437   51.2932 C   0  0  0  0  0  0  0  0  0  0  0  0
    8.0352   46.4120   51.7945 C   0  0  0  0  0  0  0  0  0  0  0  0
    6.9893   46.0464   50.9884 O   0  0  0  0  0  0  0  0  0  0  0  0
    7.1845   44.9313   50.1178 C   0  0  0  0  0  0  0  0  0  0  0  0
    6.1789   43.8825   50.5252 C   0  0  0  0  0  0  0  0  0  0  0  0
    4.8814   43.9054   49.9897 C   0  0  0  0  0  0  0  0  0  0  0  0
    3.9329   42.9656   50.3940 C   0  0  0  0  0  0  0  0  0  0  0  0
    4.2785   42.0065   51.3377 C   0  0  0  0  0  0  0  0  0  0  0  0
    3.3656   41.1085   51.7317 F   0  0  0  0  0  0  0  0  0  0  0  0
    5.5548   41.9696   51.8856 C   0  0  0  0  0  0  0  0  0  0  0  0
    6.5063   42.9090   51.4829 C   0  0  0  0  0  0  0  0  0  0  0  0
    5.4549   46.6988   52.9017 H   0  0  0  0  0  0  0  0  0  0  0  0
    2.1111   44.9562   56.0325 H   0  0  0  0  0  0  0  0  0  0  0  0
    0.4487   44.4828   54.0827 H   0  0  0  0  0  0  0  0  0  0  0  0
    2.1801   41.9269   53.3682 H   0  0  0  0  0  0  0  0  0  0  0  0
    0.8217   41.7825   54.3096 H   0  0  0  0  0  0  0  0  0  0  0  0
    0.6880   41.6825   51.3769 H   0  0  0  0  0  0  0  0  0  0  0  0
   -0.6968   42.2599   52.0863 H   0  0  0  0  0  0  0  0  0  0  0  0
    1.9472   43.8421   51.3547 H   0  0  0  0  0  0  0  0  0  0  0  0
    0.4774   44.6117   51.3351 H   0  0  0  0  0  0  0  0  0  0  0  0
    8.9853   46.2077   55.0769 H   0  0  0  0  0  0  0  0  0  0  0  0
   10.9976   47.3528   54.1656 H   0  0  0  0  0  0  0  0  0  0  0  0
   11.1297   47.8838   51.7348 H   0  0  0  0  0  0  0  0  0  0  0  0
    9.2522   47.2752   50.2200 H   0  0  0  0  0  0  0  0  0  0  0  0
    7.0167   45.2320   49.0731 H   0  0  0  0  0  0  0  0  0  0  0  0
    8.2118   44.5453   50.1933 H   0  0  0  0  0  0  0  0  0  0  0  0
    4.6107   44.6697   49.2463 H   0  0  0  0  0  0  0  0  0  0  0  0
    2.9187   42.9839   49.9685 H   0  0  0  0  0  0  0  0  0  0  0  0
    5.8142   41.2047   52.6324 H   0  0  0  0  0  0  0  0  0  0  0  0
    7.5165   42.8863   51.9177 H   0  0  0  0  0  0  0  0  0  0  0  0
  1  2  2  0
  2  3  1  0
  3  4  1  0
  4  5  2  0
  5  6  1  0
  6  7  1  0
  7  8  1  0
  8  9  1  0
  9 10  1  0
 10 11  1  0
  7 12  2  0
  2 13  1  0
 13 14  2  0
 14 15  1  0
 15 16  2  0
 16 17  1  0
 17 18  2  0
 18 19  1  0
 19 20  1  0
 20 21  1  0
 21 22  2  0
 22 23  1  0
 23 24  2  0
 24 25  1  0
 24 26  1  0
 26 27  2  0
 12  4  1  0
 18 13  1  0
 27 21  1  0
 11  8  1  0
  3 28  1  0
  6 29  1  0
  8 30  1  0
  9 31  1  0
  9 32  1  0
 10 33  1  0
 10 34  1  0
 11 35  1  0
 11 36  1  0
 14 37  1  0
 15 38  1  0
 16 39  1  0
 17 40  1  0
 20 41  1  0
 20 42  1  0
 22 43  1  0
 23 44  1  0
 26 45  1  0
 27 46  1  0
M  END
>  <meeko>  (226) 
{"is_sidechain": false}

>  <CID>  (226) 
Z1677967961

>  <pose_index>  (226) 
6

>  <docking_score>  (226) 
-8.963

>  <rmsd_to_best_selected>  (226) 
1.3485055465022486

>  <MWT>  (226) 
366.39599999999973

>  <TPSA>  (226) 
79.9

>  <logP>  (226) 
4.042600000000003

>  <HBD>  (226) 
2

>  <HBA>  (226) 
4

>  <SMILES>  (226) 
[H]c1c([H])c([H])c(C(=O)N([H])c2nc(C3([H])C([H])([H])C([H])([H])C3([H])[H])n([H])n2)c(OC([H])([H])c2c([H])c([H])c(F)c([H])c2[H])c1[H]

$$$$
Z1677967961_pose1
     RDKit          3D

 46 49  0  0  0  0  0  0  0  0999 V2000
    5.5150   47.7540   53.8420 O   0  0  0  0  0  0  0  0  0  0  0  0
    6.1160   46.6830   53.7950 C   0  0  0  0  0  0  0  0  0  0  0  0
    5.6010   45.4600   54.1360 N   0  0  0  0  0  0  0  0  0  0  0  0
    4.3320   45.2020   54.5610 C   0  0  0  0  0  0  0  0  0  0  0  0
    3.8030   45.3970   55.7700 N   0  0  0  0  0  0  0  0  0  0  0  0
    2.5470   44.9700   55.5980 N   0  0  0  0  0  0  0  0  0  0  0  0
    2.3430   44.5450   54.3210 C   0  0  0  0  0  0  0  0  0  0  0  0
    1.0070   43.9990   53.7590 C   0  0  0  0  0  0  0  0  0  0  0  0
    0.9630   42.4720   53.5010 C   0  0  0  0  0  0  0  0  0  0  0  0
    0.1590   42.7870   52.2220 C   0  0  0  0  0  0  0  0  0  0  0  0
    0.8280   44.1780   52.2310 C   0  0  0  0  0  0  0  0  0  0  0  0
    3.4590   44.6810   53.6420 N   0  0  0  0  0  0  0  0  0  0  0  0
    7.5470   46.6920   53.3130 C   0  0  0  0  0  0  0  0  0  0  0  0
    8.5120   47.1530   54.2290 C   0  0  0  0  0  0  0  0  0  0  0  0
    9.8630   47.2130   53.8870 C   0  0  0  0  0  0  0  0  0  0  0  0
   10.2720   46.8090   52.6220 C   0  0  0  0  0  0  0  0  0  0  0  0
    9.3340   46.3480   51.6980 C   0  0  0  0  0  0  0  0  0  0  0  0
    7.9700   46.2960   52.0250 C   0  0  0  0  0  0  0  0  0  0  0  0
    7.0240   45.8290   51.1510 O   0  0  0  0  0  0  0  0  0  0  0  0
    7.4600   44.9520   50.1120 C   0  0  0  0  0  0  0  0  0  0  0  0
    6.5100   43.7790   50.1090 C   0  0  0  0  0  0  0  0  0  0  0  0
    5.3520   43.8090   50.9020 C   0  0  0  0  0  0  0  0  0  0  0  0
    4.4910   42.7120   50.9380 C   0  0  0  0  0  0  0  0  0  0  0  0
    4.7900   41.5820   50.1870 C   0  0  0  0  0  0  0  0  0  0  0  0
    3.9670   40.5250   50.2270 F   0  0  0  0  0  0  0  0  0  0  0  0
    5.9340   41.5280   49.4000 C   0  0  0  0  0  0  0  0  0  0  0  0
    6.7970   42.6250   49.3630 C   0  0  0  0  0  0  0  0  0  0  0  0
    6.1780   44.6320   54.0810 H   0  0  0  0  0  0  0  0  0  0  0  0
    1.9010   45.0020   56.3780 H   0  0  0  0  0  0  0  0  0  0  0  0
    0.3410   44.4786   54.4914 H   0  0  0  0  0  0  0  0  0  0  0  0
    1.9442   42.0070   53.3245 H   0  0  0  0  0  0  0  0  0  0  0  0
    0.5950   41.7651   54.2592 H   0  0  0  0  0  0  0  0  0  0  0  0
    0.4127   42.1608   51.3540 H   0  0  0  0  0  0  0  0  0  0  0  0
   -0.9339   42.6692   52.1800 H   0  0  0  0  0  0  0  0  0  0  0  0
    1.7674   44.2401   51.6622 H   0  0  0  0  0  0  0  0  0  0  0  0
    0.3338   45.0630   51.8038 H   0  0  0  0  0  0  0  0  0  0  0  0
    8.1946   47.4717   55.2328 H   0  0  0  0  0  0  0  0  0  0  0  0
   10.6015   47.5786   54.6157 H   0  0  0  0  0  0  0  0  0  0  0  0
   11.3366   46.8527   52.3488 H   0  0  0  0  0  0  0  0  0  0  0  0
    9.6671   46.0215   50.7018 H   0  0  0  0  0  0  0  0  0  0  0  0
    7.4280   45.4685   49.1413 H   0  0  0  0  0  0  0  0  0  0  0  0
    8.4959   44.6224   50.2805 H   0  0  0  0  0  0  0  0  0  0  0  0
    5.1220   44.7037   51.4991 H   0  0  0  0  0  0  0  0  0  0  0  0
    3.5819   42.7414   51.5565 H   0  0  0  0  0  0  0  0  0  0  0  0
    6.1582   40.6270   48.8101 H   0  0  0  0  0  0  0  0  0  0  0  0
    7.7067   42.5847   48.7459 H   0  0  0  0  0  0  0  0  0  0  0  0
  1  2  2  0
  2  3  1  0
  3  4  1  0
  4  5  2  0
  5  6  1  0
  6  7  1  0
  7  8  1  0
  8  9  1  0
  9 10  1  0
 10 11  1  0
  7 12  2  0
  2 13  1  0
 13 14  2  0
 14 15  1  0
 15 16  2  0
 16 17  1  0
 17 18  2  0
 18 19  1  0
 19 20  1  0
 20 21  1  0
 21 22  2  0
 22 23  1  0
 23 24  2  0
 24 25  1  0
 24 26  1  0
 26 27  2  0
 12  4  1  0
 18 13  1  0
 27 21  1  0
 11  8  1  0
  3 28  1  0
  6 29  1  0
  8 30  1  0
  9 31  1  0
  9 32  1  0
 10 33  1  0
 10 34  1  0
 11 35  1  0
 11 36  1  0
 14 37  1  0
 15 38  1  0
 16 39  1  0
 17 40  1  0
 20 41  1  0
 20 42  1  0
 22 43  1  0
 23 44  1  0
 26 45  1  0
 27 46  1  0
M  END
>  <meeko>  (227) 
{"is_sidechain": false}

>  <CID>  (227) 
Z1677967961

>  <pose_index>  (227) 
1

>  <docking_score>  (227) 
-10.308

>  <rmsd_to_best_selected>  (227) 
0.0

>  <MWT>  (227) 
366.39599999999973

>  <TPSA>  (227) 
79.9

>  <logP>  (227) 
4.042600000000003

>  <HBD>  (227) 
2

>  <HBA>  (227) 
4

>  <SMILES>  (227) 
[H]c1c([H])c([H])c(C(=O)N([H])c2nc(C3([H])C([H])([H])C([H])([H])C3([H])[H])n([H])n2)c(OC([H])([H])c2c([H])c([H])c(F)c([H])c2[H])c1[H]

$$$$
Z1677967961_pose4
     RDKit          3D

 46 49  0  0  0  0  0  0  0  0999 V2000
    6.7124   44.8305   55.4500 O   0  0  0  0  0  0  0  0  0  0  0  0
    6.6432   45.5032   54.4249 C   0  0  0  0  0  0  0  0  0  0  0  0
    5.4915   45.8491   53.7687 N   0  0  0  0  0  0  0  0  0  0  0  0
    4.2192   45.5356   54.1413 C   0  0  0  0  0  0  0  0  0  0  0  0
    3.4465   46.1312   55.0501 N   0  0  0  0  0  0  0  0  0  0  0  0
    2.3246   45.4048   54.9851 N   0  0  0  0  0  0  0  0  0  0  0  0
    2.4335   44.4151   54.0556 C   0  0  0  0  0  0  0  0  0  0  0  0
    1.3276   43.3931   53.6997 C   0  0  0  0  0  0  0  0  0  0  0  0
    1.4212   42.7718   52.2836 C   0  0  0  0  0  0  0  0  0  0  0  0
   -0.1172   42.8743   52.2186 C   0  0  0  0  0  0  0  0  0  0  0  0
   -0.0116   44.0232   53.2427 C   0  0  0  0  0  0  0  0  0  0  0  0
    3.6257   44.4753   53.5056 N   0  0  0  0  0  0  0  0  0  0  0  0
    7.9314   46.0139   53.8229 C   0  0  0  0  0  0  0  0  0  0  0  0
    8.8951   46.4973   54.7260 C   0  0  0  0  0  0  0  0  0  0  0  0
   10.1170   47.0022   54.2800 C   0  0  0  0  0  0  0  0  0  0  0  0
   10.3956   47.0261   52.9186 C   0  0  0  0  0  0  0  0  0  0  0  0
    9.4556   46.5508   52.0039 C   0  0  0  0  0  0  0  0  0  0  0  0
    8.2178   46.0547   52.4398 C   0  0  0  0  0  0  0  0  0  0  0  0
    7.2794   45.5601   51.5714 O   0  0  0  0  0  0  0  0  0  0  0  0
    7.7307   44.6756   50.5446 C   0  0  0  0  0  0  0  0  0  0  0  0
    6.5841   43.7422   50.2442 C   0  0  0  0  0  0  0  0  0  0  0  0
    6.2334   43.4652   48.9126 C   0  0  0  0  0  0  0  0  0  0  0  0
    5.1479   42.6360   48.6267 C   0  0  0  0  0  0  0  0  0  0  0  0
    4.4094   42.0905   49.6681 C   0  0  0  0  0  0  0  0  0  0  0  0
    3.3623   41.2997   49.3920 F   0  0  0  0  0  0  0  0  0  0  0  0
    4.7355   42.3558   50.9924 C   0  0  0  0  0  0  0  0  0  0  0  0
    5.8207   43.1848   51.2825 C   0  0  0  0  0  0  0  0  0  0  0  0
    5.5349   46.3939   52.9186 H   0  0  0  0  0  0  0  0  0  0  0  0
    1.5452   45.6406   55.5880 H   0  0  0  0  0  0  0  0  0  0  0  0
    1.4104   42.7759   54.6065 H   0  0  0  0  0  0  0  0  0  0  0  0
    1.9548   43.3884   51.5453 H   0  0  0  0  0  0  0  0  0  0  0  0
    1.9487   41.8244   52.0986 H   0  0  0  0  0  0  0  0  0  0  0  0
   -0.5170   43.1690   51.2371 H   0  0  0  0  0  0  0  0  0  0  0  0
   -0.7646   42.0017   52.3903 H   0  0  0  0  0  0  0  0  0  0  0  0
    0.0796   45.0263   52.8006 H   0  0  0  0  0  0  0  0  0  0  0  0
   -0.8217   44.2441   53.9533 H   0  0  0  0  0  0  0  0  0  0  0  0
    8.6814   46.4770   55.8049 H   0  0  0  0  0  0  0  0  0  0  0  0
   10.8560   47.3795   55.0021 H   0  0  0  0  0  0  0  0  0  0  0  0
   11.3586   47.4202   52.5619 H   0  0  0  0  0  0  0  0  0  0  0  0
    9.6875   46.5652   50.9287 H   0  0  0  0  0  0  0  0  0  0  0  0
    8.0012   45.2464   49.6440 H   0  0  0  0  0  0  0  0  0  0  0  0
    8.6225   44.1175   50.8658 H   0  0  0  0  0  0  0  0  0  0  0  0
    6.8176   43.9043   48.0905 H   0  0  0  0  0  0  0  0  0  0  0  0
    4.8791   42.4161   47.5829 H   0  0  0  0  0  0  0  0  0  0  0  0
    4.1422   41.9152   51.8073 H   0  0  0  0  0  0  0  0  0  0  0  0
    6.0789   43.4023   52.3294 H   0  0  0  0  0  0  0  0  0  0  0  0
  1  2  2  0
  2  3  1  0
  3  4  1  0
  4  5  2  0
  5  6  1  0
  6  7  1  0
  7  8  1  0
  8  9  1  0
  9 10  1  0
 10 11  1  0
  7 12  2  0
  2 13  1  0
 13 14  2  0
 14 15  1  0
 15 16  2  0
 16 17  1  0
 17 18  2  0
 18 19  1  0
 19 20  1  0
 20 21  1  0
 21 22  2  0
 22 23  1  0
 23 24  2  0
 24 25  1  0
 24 26  1  0
 26 27  2  0
 12  4  1  0
 18 13  1  0
 27 21  1  0
 11  8  1  0
  3 28  1  0
  6 29  1  0
  8 30  1  0
  9 31  1  0
  9 32  1  0
 10 33  1  0
 10 34  1  0
 11 35  1  0
 11 36  1  0
 14 37  1  0
 15 38  1  0
 16 39  1  0
 17 40  1  0
 20 41  1  0
 20 42  1  0
 22 43  1  0
 23 44  1  0
 26 45  1  0
 27 46  1  0
M  END
>  <meeko>  (228) 
{"is_sidechain": false}

>  <CID>  (228) 
Z1677967961

>  <pose_index>  (228) 
4

>  <docking_score>  (228) 
-9.62

>  <rmsd_to_best_selected>  (228) 
1.236752262043511

>  <MWT>  (228) 
366.39599999999973

>  <TPSA>  (228) 
79.9

>  <logP>  (228) 
4.042600000000003

>  <HBD>  (228) 
2

>  <HBA>  (228) 
4

>  <SMILES>  (228) 
[H]c1c([H])c([H])c(C(=O)N([H])c2nc(C3([H])C([H])([H])C([H])([H])C3([H])[H])n([H])n2)c(OC([H])([H])c2c([H])c([H])c(F)c([H])c2[H])c1[H]

$$$$
Z1677967961_pose9
     RDKit          3D

 46 49  0  0  0  0  0  0  0  0999 V2000
    5.9288   47.6358   53.7719 O   0  0  0  0  0  0  0  0  0  0  0  0
    6.5537   46.6030   53.5448 C   0  0  0  0  0  0  0  0  0  0  0  0
    6.1157   45.3294   53.7980 N   0  0  0  0  0  0  0  0  0  0  0  0
    4.9084   44.9738   54.3198 C   0  0  0  0  0  0  0  0  0  0  0  0
    4.5578   44.8549   55.6008 N   0  0  0  0  0  0  0  0  0  0  0  0
    3.2748   44.4878   55.5074 N   0  0  0  0  0  0  0  0  0  0  0  0
    2.8824   44.4018   54.2073 C   0  0  0  0  0  0  0  0  0  0  0  0
    1.4632   44.0198   53.7211 C   0  0  0  0  0  0  0  0  0  0  0  0
    0.8375   42.7727   54.3950 C   0  0  0  0  0  0  0  0  0  0  0  0
    0.2700   42.4004   53.0096 C   0  0  0  0  0  0  0  0  0  0  0  0
    1.4274   43.2174   52.3974 C   0  0  0  0  0  0  0  0  0  0  0  0
    3.8993   44.7046   53.4329 N   0  0  0  0  0  0  0  0  0  0  0  0
    7.9241   46.7247   52.9229 C   0  0  0  0  0  0  0  0  0  0  0  0
    8.7260   47.7876   53.3782 C   0  0  0  0  0  0  0  0  0  0  0  0
   10.0052   48.0009   52.8645 C   0  0  0  0  0  0  0  0  0  0  0  0
   10.5072   47.1487   51.8885 C   0  0  0  0  0  0  0  0  0  0  0  0
    9.7308   46.0869   51.4217 C   0  0  0  0  0  0  0  0  0  0  0  0
    8.4363   45.8712   51.9196 C   0  0  0  0  0  0  0  0  0  0  0  0
    7.6548   44.8262   51.5009 O   0  0  0  0  0  0  0  0  0  0  0  0
    6.8207   45.0397   50.3616 C   0  0  0  0  0  0  0  0  0  0  0  0
    5.7912   43.9371   50.3663 C   0  0  0  0  0  0  0  0  0  0  0  0
    5.9926   42.7894   51.1497 C   0  0  0  0  0  0  0  0  0  0  0  0
    5.0661   41.7469   51.1268 C   0  0  0  0  0  0  0  0  0  0  0  0
    3.9418   41.8472   50.3169 C   0  0  0  0  0  0  0  0  0  0  0  0
    3.0560   40.8425   50.2903 F   0  0  0  0  0  0  0  0  0  0  0  0
    3.7259   42.9711   49.5300 C   0  0  0  0  0  0  0  0  0  0  0  0
    4.6516   44.0155   49.5503 C   0  0  0  0  0  0  0  0  0  0  0  0
    6.7100   44.5378   53.5922 H   0  0  0  0  0  0  0  0  0  0  0  0
    2.7428   44.3213   56.3548 H   0  0  0  0  0  0  0  0  0  0  0  0
    1.0093   45.0169   53.8194 H   0  0  0  0  0  0  0  0  0  0  0  0
    1.5660   42.0555   54.8012 H   0  0  0  0  0  0  0  0  0  0  0  0
    0.1939   42.8541   55.2833 H   0  0  0  0  0  0  0  0  0  0  0  0
    0.2930   41.3255   52.7772 H   0  0  0  0  0  0  0  0  0  0  0  0
   -0.7799   42.5908   52.7421 H   0  0  0  0  0  0  0  0  0  0  0  0
    2.3381   42.6375   52.1867 H   0  0  0  0  0  0  0  0  0  0  0  0
    1.3343   43.7136   51.4201 H   0  0  0  0  0  0  0  0  0  0  0  0
    8.3366   48.4633   54.1540 H   0  0  0  0  0  0  0  0  0  0  0  0
   10.6142   48.8405   53.2306 H   0  0  0  0  0  0  0  0  0  0  0  0
   11.5170   47.3110   51.4836 H   0  0  0  0  0  0  0  0  0  0  0  0
   10.1381   45.4114   50.6549 H   0  0  0  0  0  0  0  0  0  0  0  0
    6.3267   46.0200   50.4315 H   0  0  0  0  0  0  0  0  0  0  0  0
    7.4091   45.0280   49.4322 H   0  0  0  0  0  0  0  0  0  0  0  0
    6.8868   42.7119   51.7856 H   0  0  0  0  0  0  0  0  0  0  0  0
    5.2247   40.8515   51.7457 H   0  0  0  0  0  0  0  0  0  0  0  0
    2.8306   43.0378   48.8944 H   0  0  0  0  0  0  0  0  0  0  0  0
    4.4874   44.9045   48.9237 H   0  0  0  0  0  0  0  0  0  0  0  0
  1  2  2  0
  2  3  1  0
  3  4  1  0
  4  5  2  0
  5  6  1  0
  6  7  1  0
  7  8  1  0
  8  9  1  0
  9 10  1  0
 10 11  1  0
  7 12  2  0
  2 13  1  0
 13 14  2  0
 14 15  1  0
 15 16  2  0
 16 17  1  0
 17 18  2  0
 18 19  1  0
 19 20  1  0
 20 21  1  0
 21 22  2  0
 22 23  1  0
 23 24  2  0
 24 25  1  0
 24 26  1  0
 26 27  2  0
 12  4  1  0
 18 13  1  0
 27 21  1  0
 11  8  1  0
  3 28  1  0
  6 29  1  0
  8 30  1  0
  9 31  1  0
  9 32  1  0
 10 33  1  0
 10 34  1  0
 11 35  1  0
 11 36  1  0
 14 37  1  0
 15 38  1  0
 16 39  1  0
 17 40  1  0
 20 41  1  0
 20 42  1  0
 22 43  1  0
 23 44  1  0
 26 45  1  0
 27 46  1  0
M  END
>  <meeko>  (229) 
{"is_sidechain": false}

>  <CID>  (229) 
Z1677967961

>  <pose_index>  (229) 
9

>  <docking_score>  (229) 
-8.555

>  <rmsd_to_best_selected>  (229) 
1.3129884845251745

>  <MWT>  (229) 
366.39599999999973

>  <TPSA>  (229) 
79.9

>  <logP>  (229) 
4.042600000000003

>  <HBD>  (229) 
2

>  <HBA>  (229) 
4

>  <SMILES>  (229) 
[H]c1c([H])c([H])c(C(=O)N([H])c2nc(C3([H])C([H])([H])C([H])([H])C3([H])[H])n([H])n2)c(OC([H])([H])c2c([H])c([H])c(F)c([H])c2[H])c1[H]

$$$$
Z1677967961_pose10
     RDKit          3D

 46 49  0  0  0  0  0  0  0  0999 V2000
    5.7734   47.5021   53.0229 O   0  0  0  0  0  0  0  0  0  0  0  0
    6.5085   46.5328   53.1914 C   0  0  0  0  0  0  0  0  0  0  0  0
    6.1309   45.3228   53.7119 N   0  0  0  0  0  0  0  0  0  0  0  0
    4.8776   44.9647   54.1117 C   0  0  0  0  0  0  0  0  0  0  0  0
    4.3115   45.1130   55.3093 N   0  0  0  0  0  0  0  0  0  0  0  0
    3.0963   44.5905   55.1119 N   0  0  0  0  0  0  0  0  0  0  0  0
    2.9511   44.1546   53.8295 C   0  0  0  0  0  0  0  0  0  0  0  0
    1.6739   43.5095   53.2403 C   0  0  0  0  0  0  0  0  0  0  0  0
    0.4677   43.4061   54.2075 C   0  0  0  0  0  0  0  0  0  0  0  0
    0.1847   42.0222   53.5867 C   0  0  0  0  0  0  0  0  0  0  0  0
    1.6829   41.9613   53.2197 C   0  0  0  0  0  0  0  0  0  0  0  0
    4.0670   44.3807   53.1734 N   0  0  0  0  0  0  0  0  0  0  0  0
    7.9579   46.6603   52.7882 C   0  0  0  0  0  0  0  0  0  0  0  0
    8.6929   47.6842   53.4143 C   0  0  0  0  0  0  0  0  0  0  0  0
   10.0381   47.9003   53.1104 C   0  0  0  0  0  0  0  0  0  0  0  0
   10.6707   47.0889   52.1758 C   0  0  0  0  0  0  0  0  0  0  0  0
    9.9623   46.0669   51.5428 C   0  0  0  0  0  0  0  0  0  0  0  0
    8.6061   45.8508   51.8296 C   0  0  0  0  0  0  0  0  0  0  0  0
    7.8857   44.8425   51.2436 O   0  0  0  0  0  0  0  0  0  0  0  0
    6.9748   45.2000   50.2030 C   0  0  0  0  0  0  0  0  0  0  0  0
    5.8442   44.2021   50.2556 C   0  0  0  0  0  0  0  0  0  0  0  0
    6.1016   42.8646   50.6004 C   0  0  0  0  0  0  0  0  0  0  0  0
    5.0690   41.9269   50.6093 C   0  0  0  0  0  0  0  0  0  0  0  0
    3.7815   42.3212   50.2673 C   0  0  0  0  0  0  0  0  0  0  0  0
    2.7917   41.4189   50.2695 F   0  0  0  0  0  0  0  0  0  0  0  0
    3.5060   43.6374   49.9171 C   0  0  0  0  0  0  0  0  0  0  0  0
    4.5370   44.5788   49.9066 C   0  0  0  0  0  0  0  0  0  0  0  0
    6.8121   44.5854   53.8301 H   0  0  0  0  0  0  0  0  0  0  0  0
    2.4340   44.5686   55.8792 H   0  0  0  0  0  0  0  0  0  0  0  0
    1.6249   44.1118   52.3212 H   0  0  0  0  0  0  0  0  0  0  0  0
    0.7344   43.3856   55.2745 H   0  0  0  0  0  0  0  0  0  0  0  0
   -0.3039   44.1883   54.2596 H   0  0  0  0  0  0  0  0  0  0  0  0
   -0.1443   41.2556   54.3037 H   0  0  0  0  0  0  0  0  0  0  0  0
   -0.6035   41.8742   52.8339 H   0  0  0  0  0  0  0  0  0  0  0  0
    2.3244   41.4950   53.9820 H   0  0  0  0  0  0  0  0  0  0  0  0
    2.0452   41.3940   52.3497 H   0  0  0  0  0  0  0  0  0  0  0  0
    8.1978   48.3265   54.1575 H   0  0  0  0  0  0  0  0  0  0  0  0
   10.5945   48.7084   53.6078 H   0  0  0  0  0  0  0  0  0  0  0  0
   11.7314   47.2527   51.9348 H   0  0  0  0  0  0  0  0  0  0  0  0
   10.4728   45.4235   50.8111 H   0  0  0  0  0  0  0  0  0  0  0  0
    6.5906   46.2174   50.3682 H   0  0  0  0  0  0  0  0  0  0  0  0
    7.4701   45.1857   49.2209 H   0  0  0  0  0  0  0  0  0  0  0  0
    7.1235   42.5551   50.8647 H   0  0  0  0  0  0  0  0  0  0  0  0
    5.2728   40.8818   50.8855 H   0  0  0  0  0  0  0  0  0  0  0  0
    2.4816   43.9359   49.6497 H   0  0  0  0  0  0  0  0  0  0  0  0
    4.3245   45.6203   49.6236 H   0  0  0  0  0  0  0  0  0  0  0  0
  1  2  2  0
  2  3  1  0
  3  4  1  0
  4  5  2  0
  5  6  1  0
  6  7  1  0
  7  8  1  0
  8  9  1  0
  9 10  1  0
 10 11  1  0
  7 12  2  0
  2 13  1  0
 13 14  2  0
 14 15  1  0
 15 16  2  0
 16 17  1  0
 17 18  2  0
 18 19  1  0
 19 20  1  0
 20 21  1  0
 21 22  2  0
 22 23  1  0
 23 24  2  0
 24 25  1  0
 24 26  1  0
 26 27  2  0
 12  4  1  0
 18 13  1  0
 27 21  1  0
 11  8  1  0
  3 28  1  0
  6 29  1  0
  8 30  1  0
  9 31  1  0
  9 32  1  0
 10 33  1  0
 10 34  1  0
 11 35  1  0
 11 36  1  0
 14 37  1  0
 15 38  1  0
 16 39  1  0
 17 40  1  0
 20 41  1  0
 20 42  1  0
 22 43  1  0
 23 44  1  0
 26 45  1  0
 27 46  1  0
M  END
>  <meeko>  (230) 
{"is_sidechain": false}

>  <CID>  (230) 
Z1677967961

>  <pose_index>  (230) 
10

>  <docking_score>  (230) 
-8.552

>  <rmsd_to_best_selected>  (230) 
1.4431352832389481

>  <MWT>  (230) 
366.39599999999973

>  <TPSA>  (230) 
79.9

>  <logP>  (230) 
4.042600000000003

>  <HBD>  (230) 
2

>  <HBA>  (230) 
4

>  <SMILES>  (230) 
[H]c1c([H])c([H])c(C(=O)N([H])c2nc(C3([H])C([H])([H])C([H])([H])C3([H])[H])n([H])n2)c(OC([H])([H])c2c([H])c([H])c(F)c([H])c2[H])c1[H]

$$$$
Z168978470_pose1
     RDKit          3D

 40 42  0  0  0  0  0  0  0  0999 V2000
    1.7190   43.1270   52.8350 C   0  0  0  0  0  0  0  0  0  0  0  0
    3.0380   43.6180   52.2410 C   0  0  0  0  0  0  0  0  0  0  0  0
    3.9000   42.4730   52.1390 O   0  0  0  0  0  0  0  0  0  0  0  0
    4.5480   42.2370   50.9590 C   0  0  0  0  0  0  0  0  0  0  0  0
    3.9770   41.2230   50.1840 C   0  0  0  0  0  0  0  0  0  0  0  0
    4.5290   40.8690   48.9510 C   0  0  0  0  0  0  0  0  0  0  0  0
    5.6620   41.5290   48.4850 C   0  0  0  0  0  0  0  0  0  0  0  0
    6.2390   42.5400   49.2510 C   0  0  0  0  0  0  0  0  0  0  0  0
    5.6840   42.8950   50.4860 C   0  0  0  0  0  0  0  0  0  0  0  0
    3.6120   44.7110   53.1300 C   0  0  0  0  0  0  0  0  0  0  0  0
    3.0700   44.8660   54.3390 N   0  0  0  0  0  0  0  0  0  0  0  0
    3.6000   45.8350   55.0650 C   0  0  0  0  0  0  0  0  0  0  0  0
    3.0790   46.0340   56.3270 N   0  0  0  0  0  0  0  0  0  0  0  0
    4.6130   46.6020   54.6950 N   0  0  0  0  0  0  0  0  0  0  0  0
    5.0970   46.3800   53.4760 C   0  0  0  0  0  0  0  0  0  0  0  0
    6.1590   47.2020   53.1040 N   0  0  0  0  0  0  0  0  0  0  0  0
    7.5260   46.9820   52.8960 C   0  0  0  0  0  0  0  0  0  0  0  0
    8.5330   47.4460   53.7470 C   0  0  0  0  0  0  0  0  0  0  0  0
    9.8850   47.2210   53.4640 C   0  0  0  0  0  0  0  0  0  0  0  0
   10.2550   46.5330   52.3120 C   0  0  0  0  0  0  0  0  0  0  0  0
    9.2720   46.0730   51.4430 C   0  0  0  0  0  0  0  0  0  0  0  0
    7.9220   46.3010   51.7310 C   0  0  0  0  0  0  0  0  0  0  0  0
    4.6360   45.4320   52.6710 N   0  0  0  0  0  0  0  0  0  0  0  0
    1.7803   43.1498   53.9331 H   0  0  0  0  0  0  0  0  0  0  0  0
    0.9001   43.7805   52.4998 H   0  0  0  0  0  0  0  0  0  0  0  0
    1.5268   42.0971   52.4998 H   0  0  0  0  0  0  0  0  0  0  0  0
    2.9120   44.0608   51.2420 H   0  0  0  0  0  0  0  0  0  0  0  0
    3.0824   40.6978   50.5498 H   0  0  0  0  0  0  0  0  0  0  0  0
    4.0694   40.0706   48.3498 H   0  0  0  0  0  0  0  0  0  0  0  0
    6.1009   41.2534   47.5147 H   0  0  0  0  0  0  0  0  0  0  0  0
    7.1350   43.0616   48.8834 H   0  0  0  0  0  0  0  0  0  0  0  0
    6.1444   43.6945   51.0850 H   0  0  0  0  0  0  0  0  0  0  0  0
    2.3690   45.3440   56.5320 H   0  0  0  0  0  0  0  0  0  0  0  0
    2.8360   47.0050   56.4630 H   0  0  0  0  0  0  0  0  0  0  0  0
    5.7990   48.0980   52.8120 H   0  0  0  0  0  0  0  0  0  0  0  0
    8.2574   47.9989   54.6571 H   0  0  0  0  0  0  0  0  0  0  0  0
   10.6581   47.5892   54.1545 H   0  0  0  0  0  0  0  0  0  0  0  0
   11.3176   46.3545   52.0907 H   0  0  0  0  0  0  0  0  0  0  0  0
    9.5556   45.5300   50.5294 H   0  0  0  0  0  0  0  0  0  0  0  0
    7.1539   45.9399   51.0313 H   0  0  0  0  0  0  0  0  0  0  0  0
  1  2  1  0
  2  3  1  0
  3  4  1  0
  4  5  2  0
  5  6  1  0
  6  7  2  0
  7  8  1  0
  8  9  2  0
  2 10  1  0
 10 11  2  0
 11 12  1  0
 12 13  1  0
 12 14  2  0
 14 15  1  0
 15 16  1  0
 16 17  1  0
 17 18  2  0
 18 19  1  0
 19 20  2  0
 20 21  1  0
 21 22  2  0
 15 23  2  0
  9  4  1  0
 23 10  1  0
 22 17  1  0
  1 24  1  0
  1 25  1  0
  1 26  1  0
  2 27  1  0
  5 28  1  0
  6 29  1  0
  7 30  1  0
  8 31  1  0
  9 32  1  0
 13 33  1  0
 13 34  1  0
 16 35  1  0
 18 36  1  0
 19 37  1  0
 20 38  1  0
 21 39  1  0
 22 40  1  0
M  END
>  <meeko>  (231) 
{"is_sidechain": false}

>  <CID>  (231) 
Z168978470

>  <pose_index>  (231) 
1

>  <docking_score>  (231) 
-9.16

>  <rmsd_to_best_selected>  (231) 
0.0

>  <MWT>  (231) 
307.3569999999997

>  <TPSA>  (231) 
85.95

>  <logP>  (231) 
3.3374000000000006

>  <HBD>  (231) 
2

>  <HBA>  (231) 
6

>  <SMILES>  (231) 
[H]c1c([H])c([H])c(OC([H])(c2nc(N([H])[H])nc(N([H])c3c([H])c([H])c([H])c([H])c3[H])n2)C([H])([H])[H])c([H])c1[H]

$$$$
Z168978470_pose2
     RDKit          3D

 40 42  0  0  0  0  0  0  0  0999 V2000
    1.2977   43.4772   52.5212 C   0  0  0  0  0  0  0  0  0  0  0  0
    2.6761   43.9190   52.0306 C   0  0  0  0  0  0  0  0  0  0  0  0
    3.3869   42.7259   51.6595 O   0  0  0  0  0  0  0  0  0  0  0  0
    4.4392   42.8260   50.7930 C   0  0  0  0  0  0  0  0  0  0  0  0
    5.4717   41.9161   51.0378 C   0  0  0  0  0  0  0  0  0  0  0  0
    6.6140   41.8992   50.2346 C   0  0  0  0  0  0  0  0  0  0  0  0
    6.7302   42.7969   49.1762 C   0  0  0  0  0  0  0  0  0  0  0  0
    5.7058   43.7067   48.9265 C   0  0  0  0  0  0  0  0  0  0  0  0
    4.5614   43.7222   49.7315 C   0  0  0  0  0  0  0  0  0  0  0  0
    3.3735   44.7023   53.1315 C   0  0  0  0  0  0  0  0  0  0  0  0
    2.6062   45.2434   54.0795 N   0  0  0  0  0  0  0  0  0  0  0  0
    3.2628   45.9204   55.0056 C   0  0  0  0  0  0  0  0  0  0  0  0
    2.5162   46.4963   56.0139 N   0  0  0  0  0  0  0  0  0  0  0  0
    4.5768   46.0592   55.0655 N   0  0  0  0  0  0  0  0  0  0  0  0
    5.2682   45.4861   54.0836 C   0  0  0  0  0  0  0  0  0  0  0  0
    6.6502   45.6477   54.1628 N   0  0  0  0  0  0  0  0  0  0  0  0
    7.6623   45.8054   53.2069 C   0  0  0  0  0  0  0  0  0  0  0  0
    8.3371   47.0070   52.9734 C   0  0  0  0  0  0  0  0  0  0  0  0
    9.3173   47.1070   51.9787 C   0  0  0  0  0  0  0  0  0  0  0  0
    9.6318   46.0042   51.1911 C   0  0  0  0  0  0  0  0  0  0  0  0
    8.9641   44.8022   51.3953 C   0  0  0  0  0  0  0  0  0  0  0  0
    7.9859   44.7081   52.3910 C   0  0  0  0  0  0  0  0  0  0  0  0
    4.7047   44.7842   53.1094 N   0  0  0  0  0  0  0  0  0  0  0  0
    0.6071   43.4152   51.6673 H   0  0  0  0  0  0  0  0  0  0  0  0
    1.3780   42.4903   53.0003 H   0  0  0  0  0  0  0  0  0  0  0  0
    0.9160   44.2082   53.2492 H   0  0  0  0  0  0  0  0  0  0  0  0
    2.6193   44.5877   51.1591 H   0  0  0  0  0  0  0  0  0  0  0  0
    5.3834   41.2052   51.8726 H   0  0  0  0  0  0  0  0  0  0  0  0
    7.4200   41.1786   50.4373 H   0  0  0  0  0  0  0  0  0  0  0  0
    7.6275   42.7874   48.5401 H   0  0  0  0  0  0  0  0  0  0  0  0
    5.7969   44.4171   48.0917 H   0  0  0  0  0  0  0  0  0  0  0  0
    3.7562   44.4431   49.5266 H   0  0  0  0  0  0  0  0  0  0  0  0
    3.1099   47.0174   56.6428 H   0  0  0  0  0  0  0  0  0  0  0  0
    1.8865   45.8196   56.4218 H   0  0  0  0  0  0  0  0  0  0  0  0
    6.9105   45.8075   55.1238 H   0  0  0  0  0  0  0  0  0  0  0  0
    8.0937   47.8901   53.5824 H   0  0  0  0  0  0  0  0  0  0  0  0
    9.8407   48.0613   51.8193 H   0  0  0  0  0  0  0  0  0  0  0  0
   10.4041   46.0828   50.4117 H   0  0  0  0  0  0  0  0  0  0  0  0
    9.2046   43.9262   50.7749 H   0  0  0  0  0  0  0  0  0  0  0  0
    7.4585   43.7542   52.5385 H   0  0  0  0  0  0  0  0  0  0  0  0
  1  2  1  0
  2  3  1  0
  3  4  1  0
  4  5  2  0
  5  6  1  0
  6  7  2  0
  7  8  1  0
  8  9  2  0
  2 10  1  0
 10 11  2  0
 11 12  1  0
 12 13  1  0
 12 14  2  0
 14 15  1  0
 15 16  1  0
 16 17  1  0
 17 18  2  0
 18 19  1  0
 19 20  2  0
 20 21  1  0
 21 22  2  0
 15 23  2  0
  9  4  1  0
 23 10  1  0
 22 17  1  0
  1 24  1  0
  1 25  1  0
  1 26  1  0
  2 27  1  0
  5 28  1  0
  6 29  1  0
  7 30  1  0
  8 31  1  0
  9 32  1  0
 13 33  1  0
 13 34  1  0
 16 35  1  0
 18 36  1  0
 19 37  1  0
 20 38  1  0
 21 39  1  0
 22 40  1  0
M  END
>  <meeko>  (232) 
{"is_sidechain": false}

>  <CID>  (232) 
Z168978470

>  <pose_index>  (232) 
2

>  <docking_score>  (232) 
-8.835

>  <rmsd_to_best_selected>  (232) 
1.7230058606130492

>  <MWT>  (232) 
307.3569999999997

>  <TPSA>  (232) 
85.95

>  <logP>  (232) 
3.3374000000000006

>  <HBD>  (232) 
2

>  <HBA>  (232) 
6

>  <SMILES>  (232) 
[H]c1c([H])c([H])c(OC([H])(c2nc(N([H])[H])nc(N([H])c3c([H])c([H])c([H])c([H])c3[H])n2)C([H])([H])[H])c([H])c1[H]

$$$$
Z168978470_pose3
     RDKit          3D

 40 42  0  0  0  0  0  0  0  0999 V2000
    1.3152   43.5396   52.5279 C   0  0  0  0  0  0  0  0  0  0  0  0
    2.7285   43.8888   52.0650 C   0  0  0  0  0  0  0  0  0  0  0  0
    3.3829   42.6467   51.7535 O   0  0  0  0  0  0  0  0  0  0  0  0
    4.4703   42.6613   50.9257 C   0  0  0  0  0  0  0  0  0  0  0  0
    4.3457   43.5221   49.8307 C   0  0  0  0  0  0  0  0  0  0  0  0
    5.3760   43.6423   48.8962 C   0  0  0  0  0  0  0  0  0  0  0  0
    6.5433   42.9003   49.0527 C   0  0  0  0  0  0  0  0  0  0  0  0
    6.6746   42.0395   50.1408 C   0  0  0  0  0  0  0  0  0  0  0  0
    5.6420   41.9194   51.0773 C   0  0  0  0  0  0  0  0  0  0  0  0
    3.4376   44.6704   53.1608 C   0  0  0  0  0  0  0  0  0  0  0  0
    2.6768   45.2460   54.0928 N   0  0  0  0  0  0  0  0  0  0  0  0
    3.3424   45.9203   55.0139 C   0  0  0  0  0  0  0  0  0  0  0  0
    2.6018   46.5317   56.0056 N   0  0  0  0  0  0  0  0  0  0  0  0
    4.6598   46.0231   55.0849 N   0  0  0  0  0  0  0  0  0  0  0  0
    5.3438   45.4162   54.1192 C   0  0  0  0  0  0  0  0  0  0  0  0
    6.7290   45.5412   54.2086 N   0  0  0  0  0  0  0  0  0  0  0  0
    7.7453   45.7416   53.2674 C   0  0  0  0  0  0  0  0  0  0  0  0
    8.4525   46.9391   53.1204 C   0  0  0  0  0  0  0  0  0  0  0  0
    9.4358   47.0860   52.1351 C   0  0  0  0  0  0  0  0  0  0  0  0
    9.7226   46.0341   51.2693 C   0  0  0  0  0  0  0  0  0  0  0  0
    9.0237   44.8391   51.3864 C   0  0  0  0  0  0  0  0  0  0  0  0
    8.0425   44.6979   52.3739 C   0  0  0  0  0  0  0  0  0  0  0  0
    4.7705   44.7151   53.1501 N   0  0  0  0  0  0  0  0  0  0  0  0
    0.6275   43.5827   51.6705 H   0  0  0  0  0  0  0  0  0  0  0  0
    1.3087   42.5249   52.9525 H   0  0  0  0  0  0  0  0  0  0  0  0
    0.9919   44.2598   53.2939 H   0  0  0  0  0  0  0  0  0  0  0  0
    2.7329   44.5298   51.1712 H   0  0  0  0  0  0  0  0  0  0  0  0
    3.4255   44.1113   49.7041 H   0  0  0  0  0  0  0  0  0  0  0  0
    5.2656   44.3217   48.0382 H   0  0  0  0  0  0  0  0  0  0  0  0
    7.3589   42.9931   48.3205 H   0  0  0  0  0  0  0  0  0  0  0  0
    7.5956   41.4509   50.2641 H   0  0  0  0  0  0  0  0  0  0  0  0
    5.7543   41.2391   51.9343 H   0  0  0  0  0  0  0  0  0  0  0  0
    1.9160   45.8927   56.3818 H   0  0  0  0  0  0  0  0  0  0  0  0
    2.2763   47.4377   55.6994 H   0  0  0  0  0  0  0  0  0  0  0  0
    6.9912   45.6293   55.1795 H   0  0  0  0  0  0  0  0  0  0  0  0
    8.2317   47.7819   53.7921 H   0  0  0  0  0  0  0  0  0  0  0  0
    9.9837   48.0355   52.0446 H   0  0  0  0  0  0  0  0  0  0  0  0
   10.4978   46.1484   50.4973 H   0  0  0  0  0  0  0  0  0  0  0  0
    9.2414   44.0048   50.7034 H   0  0  0  0  0  0  0  0  0  0  0  0
    7.4914   43.7491   52.4528 H   0  0  0  0  0  0  0  0  0  0  0  0
  1  2  1  0
  2  3  1  0
  3  4  1  0
  4  5  2  0
  5  6  1  0
  6  7  2  0
  7  8  1  0
  8  9  2  0
  2 10  1  0
 10 11  2  0
 11 12  1  0
 12 13  1  0
 12 14  2  0
 14 15  1  0
 15 16  1  0
 16 17  1  0
 17 18  2  0
 18 19  1  0
 19 20  2  0
 20 21  1  0
 21 22  2  0
 15 23  2  0
  9  4  1  0
 23 10  1  0
 22 17  1  0
  1 24  1  0
  1 25  1  0
  1 26  1  0
  2 27  1  0
  5 28  1  0
  6 29  1  0
  7 30  1  0
  8 31  1  0
  9 32  1  0
 13 33  1  0
 13 34  1  0
 16 35  1  0
 18 36  1  0
 19 37  1  0
 20 38  1  0
 21 39  1  0
 22 40  1  0
M  END
>  <meeko>  (233) 
{"is_sidechain": false}

>  <CID>  (233) 
Z168978470

>  <pose_index>  (233) 
3

>  <docking_score>  (233) 
-8.785

>  <rmsd_to_best_selected>  (233) 
1.7000190331341483

>  <MWT>  (233) 
307.3569999999997

>  <TPSA>  (233) 
85.95

>  <logP>  (233) 
3.3374000000000006

>  <HBD>  (233) 
2

>  <HBA>  (233) 
6

>  <SMILES>  (233) 
[H]c1c([H])c([H])c(OC([H])(c2nc(N([H])[H])nc(N([H])c3c([H])c([H])c([H])c([H])c3[H])n2)C([H])([H])[H])c([H])c1[H]

$$$$
Z168978470_pose5
     RDKit          3D

 40 42  0  0  0  0  0  0  0  0999 V2000
    1.6654   43.5722   52.5365 C   0  0  0  0  0  0  0  0  0  0  0  0
    3.0246   44.0066   51.9902 C   0  0  0  0  0  0  0  0  0  0  0  0
    3.8087   42.8133   51.8278 O   0  0  0  0  0  0  0  0  0  0  0  0
    4.1607   42.4195   50.5669 C   0  0  0  0  0  0  0  0  0  0  0  0
    5.4263   41.8333   50.4817 C   0  0  0  0  0  0  0  0  0  0  0  0
    5.9229   41.3809   49.2576 C   0  0  0  0  0  0  0  0  0  0  0  0
    5.1526   41.5138   48.1062 C   0  0  0  0  0  0  0  0  0  0  0  0
    3.8898   42.0980   48.1817 C   0  0  0  0  0  0  0  0  0  0  0  0
    3.3921   42.5497   49.4093 C   0  0  0  0  0  0  0  0  0  0  0  0
    3.6572   45.0019   52.9516 C   0  0  0  0  0  0  0  0  0  0  0  0
    3.0116   45.2461   54.0933 N   0  0  0  0  0  0  0  0  0  0  0  0
    3.5993   46.1242   54.8862 C   0  0  0  0  0  0  0  0  0  0  0  0
    2.9761   46.4094   56.0837 N   0  0  0  0  0  0  0  0  0  0  0  0
    4.7547   46.7221   54.6435 N   0  0  0  0  0  0  0  0  0  0  0  0
    5.3346   46.4198   53.4844 C   0  0  0  0  0  0  0  0  0  0  0  0
    6.5467   47.0642   53.2461 N   0  0  0  0  0  0  0  0  0  0  0  0
    7.8851   46.6532   53.2818 C   0  0  0  0  0  0  0  0  0  0  0  0
    8.8739   47.2708   54.0538 C   0  0  0  0  0  0  0  0  0  0  0  0
   10.2020   46.8316   54.0190 C   0  0  0  0  0  0  0  0  0  0  0  0
   10.5678   45.7675   53.2003 C   0  0  0  0  0  0  0  0  0  0  0  0
    9.6048   45.1460   52.4125 C   0  0  0  0  0  0  0  0  0  0  0  0
    8.2789   45.5895   52.4505 C   0  0  0  0  0  0  0  0  0  0  0  0
    4.8261   45.5524   52.6209 N   0  0  0  0  0  0  0  0  0  0  0  0
    0.8682   44.1270   52.0200 H   0  0  0  0  0  0  0  0  0  0  0  0
    1.5300   42.4937   52.3676 H   0  0  0  0  0  0  0  0  0  0  0  0
    1.6193   43.7830   53.6151 H   0  0  0  0  0  0  0  0  0  0  0  0
    2.9450   44.5170   51.0190 H   0  0  0  0  0  0  0  0  0  0  0  0
    6.0385   41.7271   51.3895 H   0  0  0  0  0  0  0  0  0  0  0  0
    6.9205   40.9205   49.2035 H   0  0  0  0  0  0  0  0  0  0  0  0
    5.5393   41.1587   47.1396 H   0  0  0  0  0  0  0  0  0  0  0  0
    3.2810   42.2049   47.2718 H   0  0  0  0  0  0  0  0  0  0  0  0
    2.3935   43.0080   49.4619 H   0  0  0  0  0  0  0  0  0  0  0  0
    1.9944   46.6001   55.9364 H   0  0  0  0  0  0  0  0  0  0  0  0
    3.5072   47.0873   56.6107 H   0  0  0  0  0  0  0  0  0  0  0  0
    6.3664   47.9718   52.8429 H   0  0  0  0  0  0  0  0  0  0  0  0
    8.6027   48.1180   54.7008 H   0  0  0  0  0  0  0  0  0  0  0  0
   10.9600   47.3295   54.6413 H   0  0  0  0  0  0  0  0  0  0  0  0
   11.6113   45.4202   53.1765 H   0  0  0  0  0  0  0  0  0  0  0  0
    9.8857   44.3063   51.7598 H   0  0  0  0  0  0  0  0  0  0  0  0
    7.5278   45.0956   51.8165 H   0  0  0  0  0  0  0  0  0  0  0  0
  1  2  1  0
  2  3  1  0
  3  4  1  0
  4  5  2  0
  5  6  1  0
  6  7  2  0
  7  8  1  0
  8  9  2  0
  2 10  1  0
 10 11  2  0
 11 12  1  0
 12 13  1  0
 12 14  2  0
 14 15  1  0
 15 16  1  0
 16 17  1  0
 17 18  2  0
 18 19  1  0
 19 20  2  0
 20 21  1  0
 21 22  2  0
 15 23  2  0
  9  4  1  0
 23 10  1  0
 22 17  1  0
  1 24  1  0
  1 25  1  0
  1 26  1  0
  2 27  1  0
  5 28  1  0
  6 29  1  0
  7 30  1  0
  8 31  1  0
  9 32  1  0
 13 33  1  0
 13 34  1  0
 16 35  1  0
 18 36  1  0
 19 37  1  0
 20 38  1  0
 21 39  1  0
 22 40  1  0
M  END
>  <meeko>  (234) 
{"is_sidechain": false}

>  <CID>  (234) 
Z168978470

>  <pose_index>  (234) 
5

>  <docking_score>  (234) 
-8.576

>  <rmsd_to_best_selected>  (234) 
0.8123652678954953

>  <MWT>  (234) 
307.3569999999997

>  <TPSA>  (234) 
85.95

>  <logP>  (234) 
3.3374000000000006

>  <HBD>  (234) 
2

>  <HBA>  (234) 
6

>  <SMILES>  (234) 
[H]c1c([H])c([H])c(OC([H])(c2nc(N([H])[H])nc(N([H])c3c([H])c([H])c([H])c([H])c3[H])n2)C([H])([H])[H])c([H])c1[H]

$$$$
Z168978470_pose6
     RDKit          3D

 40 42  0  0  0  0  0  0  0  0999 V2000
    1.6232   43.6999   52.4894 C   0  0  0  0  0  0  0  0  0  0  0  0
    3.0256   44.0123   51.9681 C   0  0  0  0  0  0  0  0  0  0  0  0
    3.6760   42.7501   51.7440 O   0  0  0  0  0  0  0  0  0  0  0  0
    3.9375   42.3591   50.4609 C   0  0  0  0  0  0  0  0  0  0  0  0
    5.1905   42.7553   49.9849 C   0  0  0  0  0  0  0  0  0  0  0  0
    5.5994   42.4290   48.6900 C   0  0  0  0  0  0  0  0  0  0  0  0
    4.7515   41.7005   47.8598 C   0  0  0  0  0  0  0  0  0  0  0  0
    3.5007   41.3022   48.3258 C   0  0  0  0  0  0  0  0  0  0  0  0
    3.0927   41.6291   49.6242 C   0  0  0  0  0  0  0  0  0  0  0  0
    3.7559   44.8807   52.9816 C   0  0  0  0  0  0  0  0  0  0  0  0
    3.0657   45.8687   53.5517 N   0  0  0  0  0  0  0  0  0  0  0  0
    3.7510   46.5976   54.4159 C   0  0  0  0  0  0  0  0  0  0  0  0
    3.0807   47.6304   55.0392 N   0  0  0  0  0  0  0  0  0  0  0  0
    5.0110   46.3926   54.7595 N   0  0  0  0  0  0  0  0  0  0  0  0
    5.6257   45.3842   54.1471 C   0  0  0  0  0  0  0  0  0  0  0  0
    6.9546   45.1899   54.5192 N   0  0  0  0  0  0  0  0  0  0  0  0
    8.1742   45.6939   54.0526 C   0  0  0  0  0  0  0  0  0  0  0  0
    8.8264   46.8006   54.6031 C   0  0  0  0  0  0  0  0  0  0  0  0
   10.0286   47.2771   54.0676 C   0  0  0  0  0  0  0  0  0  0  0  0
   10.5965   46.6551   52.9598 C   0  0  0  0  0  0  0  0  0  0  0  0
    9.9592   45.5615   52.3847 C   0  0  0  0  0  0  0  0  0  0  0  0
    8.7586   45.0898   52.9255 C   0  0  0  0  0  0  0  0  0  0  0  0
    5.0278   44.5945   53.2665 N   0  0  0  0  0  0  0  0  0  0  0  0
    0.9414   43.5487   51.6395 H   0  0  0  0  0  0  0  0  0  0  0  0
    1.6545   42.7865   53.1014 H   0  0  0  0  0  0  0  0  0  0  0  0
    1.2644   44.5399   53.1024 H   0  0  0  0  0  0  0  0  0  0  0  0
    3.0091   44.5788   51.0253 H   0  0  0  0  0  0  0  0  0  0  0  0
    5.8627   43.3310   50.6381 H   0  0  0  0  0  0  0  0  0  0  0  0
    6.5881   42.7465   48.3271 H   0  0  0  0  0  0  0  0  0  0  0  0
    5.0684   41.4404   46.8390 H   0  0  0  0  0  0  0  0  0  0  0  0
    2.8300   40.7277   47.6699 H   0  0  0  0  0  0  0  0  0  0  0  0
    2.1041   41.3097   49.9857 H   0  0  0  0  0  0  0  0  0  0  0  0
    2.1124   47.6516   54.7514 H   0  0  0  0  0  0  0  0  0  0  0  0
    3.6056   48.4910   54.9667 H   0  0  0  0  0  0  0  0  0  0  0  0
    6.9835   44.6745   55.3863 H   0  0  0  0  0  0  0  0  0  0  0  0
    8.3862   47.3072   55.4746 H   0  0  0  0  0  0  0  0  0  0  0  0
   10.5260   48.1458   54.5237 H   0  0  0  0  0  0  0  0  0  0  0  0
   11.5438   47.0264   52.5417 H   0  0  0  0  0  0  0  0  0  0  0  0
   10.3987   45.0678   51.5055 H   0  0  0  0  0  0  0  0  0  0  0  0
    8.2607   44.2272   52.4586 H   0  0  0  0  0  0  0  0  0  0  0  0
  1  2  1  0
  2  3  1  0
  3  4  1  0
  4  5  2  0
  5  6  1  0
  6  7  2  0
  7  8  1  0
  8  9  2  0
  2 10  1  0
 10 11  2  0
 11 12  1  0
 12 13  1  0
 12 14  2  0
 14 15  1  0
 15 16  1  0
 16 17  1  0
 17 18  2  0
 18 19  1  0
 19 20  2  0
 20 21  1  0
 21 22  2  0
 15 23  2  0
  9  4  1  0
 23 10  1  0
 22 17  1  0
  1 24  1  0
  1 25  1  0
  1 26  1  0
  2 27  1  0
  5 28  1  0
  6 29  1  0
  7 30  1  0
  8 31  1  0
  9 32  1  0
 13 33  1  0
 13 34  1  0
 16 35  1  0
 18 36  1  0
 19 37  1  0
 20 38  1  0
 21 39  1  0
 22 40  1  0
M  END
>  <meeko>  (235) 
{"is_sidechain": false}

>  <CID>  (235) 
Z168978470

>  <pose_index>  (235) 
6

>  <docking_score>  (235) 
-8.339

>  <rmsd_to_best_selected>  (235) 
1.2675857753960875

>  <MWT>  (235) 
307.3569999999997

>  <TPSA>  (235) 
85.95

>  <logP>  (235) 
3.3374000000000006

>  <HBD>  (235) 
2

>  <HBA>  (235) 
6

>  <SMILES>  (235) 
[H]c1c([H])c([H])c(OC([H])(c2nc(N([H])[H])nc(N([H])c3c([H])c([H])c([H])c([H])c3[H])n2)C([H])([H])[H])c([H])c1[H]

$$$$
Z168978470_pose10
     RDKit          3D

 40 42  0  0  0  0  0  0  0  0999 V2000
    1.4247   45.1559   50.4623 C   0  0  0  0  0  0  0  0  0  0  0  0
    2.9267   44.8729   50.4781 C   0  0  0  0  0  0  0  0  0  0  0  0
    3.0839   43.4749   50.7717 O   0  0  0  0  0  0  0  0  0  0  0  0
    4.2982   42.8872   50.5598 C   0  0  0  0  0  0  0  0  0  0  0  0
    4.6965   42.0098   51.5738 C   0  0  0  0  0  0  0  0  0  0  0  0
    5.9162   41.3338   51.4960 C   0  0  0  0  0  0  0  0  0  0  0  0
    6.7497   41.5334   50.3983 C   0  0  0  0  0  0  0  0  0  0  0  0
    6.3615   42.4061   49.3844 C   0  0  0  0  0  0  0  0  0  0  0  0
    5.1384   43.0823   49.4632 C   0  0  0  0  0  0  0  0  0  0  0  0
    3.5961   45.7716   51.5063 C   0  0  0  0  0  0  0  0  0  0  0  0
    2.8226   46.6422   52.1572 N   0  0  0  0  0  0  0  0  0  0  0  0
    3.4558   47.4033   53.0313 C   0  0  0  0  0  0  0  0  0  0  0  0
    2.6999   48.3178   53.7357 N   0  0  0  0  0  0  0  0  0  0  0  0
    4.7467   47.3327   53.3137 N   0  0  0  0  0  0  0  0  0  0  0  0
    5.4466   46.4354   52.6239 C   0  0  0  0  0  0  0  0  0  0  0  0
    6.8040   46.3807   52.9323 N   0  0  0  0  0  0  0  0  0  0  0  0
    7.6084   45.4496   53.5998 C   0  0  0  0  0  0  0  0  0  0  0  0
    7.8767   44.1626   53.1232 C   0  0  0  0  0  0  0  0  0  0  0  0
    8.6616   43.2660   53.8557 C   0  0  0  0  0  0  0  0  0  0  0  0
    9.1862   43.6396   55.0896 C   0  0  0  0  0  0  0  0  0  0  0  0
    8.9222   44.9089   55.5904 C   0  0  0  0  0  0  0  0  0  0  0  0
    8.1372   45.8008   54.8541 C   0  0  0  0  0  0  0  0  0  0  0  0
    4.9044   45.6241   51.7255 N   0  0  0  0  0  0  0  0  0  0  0  0
    0.8749   44.2110   50.3408 H   0  0  0  0  0  0  0  0  0  0  0  0
    1.1313   45.6316   51.4097 H   0  0  0  0  0  0  0  0  0  0  0  0
    1.1872   45.8287   49.6252 H   0  0  0  0  0  0  0  0  0  0  0  0
    3.4071   45.0912   49.5129 H   0  0  0  0  0  0  0  0  0  0  0  0
    4.0413   41.8504   52.4429 H   0  0  0  0  0  0  0  0  0  0  0  0
    6.2176   40.6456   52.2994 H   0  0  0  0  0  0  0  0  0  0  0  0
    7.7115   41.0037   50.3322 H   0  0  0  0  0  0  0  0  0  0  0  0
    7.0196   42.5646   48.5173 H   0  0  0  0  0  0  0  0  0  0  0  0
    4.8388   43.7695   48.6581 H   0  0  0  0  0  0  0  0  0  0  0  0
    3.1262   49.2340   53.7006 H   0  0  0  0  0  0  0  0  0  0  0  0
    2.4556   47.9534   54.6458 H   0  0  0  0  0  0  0  0  0  0  0  0
    7.2854   47.1217   52.4430 H   0  0  0  0  0  0  0  0  0  0  0  0
    7.4625   43.8492   52.1535 H   0  0  0  0  0  0  0  0  0  0  0  0
    8.8650   42.2619   53.4552 H   0  0  0  0  0  0  0  0  0  0  0  0
    9.8053   42.9351   55.6644 H   0  0  0  0  0  0  0  0  0  0  0  0
    9.3309   45.2116   56.5658 H   0  0  0  0  0  0  0  0  0  0  0  0
    7.9286   46.7996   55.2652 H   0  0  0  0  0  0  0  0  0  0  0  0
  1  2  1  0
  2  3  1  0
  3  4  1  0
  4  5  2  0
  5  6  1  0
  6  7  2  0
  7  8  1  0
  8  9  2  0
  2 10  1  0
 10 11  2  0
 11 12  1  0
 12 13  1  0
 12 14  2  0
 14 15  1  0
 15 16  1  0
 16 17  1  0
 17 18  2  0
 18 19  1  0
 19 20  2  0
 20 21  1  0
 21 22  2  0
 15 23  2  0
  9  4  1  0
 23 10  1  0
 22 17  1  0
  1 24  1  0
  1 25  1  0
  1 26  1  0
  2 27  1  0
  5 28  1  0
  6 29  1  0
  7 30  1  0
  8 31  1  0
  9 32  1  0
 13 33  1  0
 13 34  1  0
 16 35  1  0
 18 36  1  0
 19 37  1  0
 20 38  1  0
 21 39  1  0
 22 40  1  0
M  END
>  <meeko>  (236) 
{"is_sidechain": false}

>  <CID>  (236) 
Z168978470

>  <pose_index>  (236) 
10

>  <docking_score>  (236) 
-7.985

>  <rmsd_to_best_selected>  (236) 
1.2708428383455763

>  <MWT>  (236) 
307.3569999999997

>  <TPSA>  (236) 
85.95

>  <logP>  (236) 
3.3374000000000006

>  <HBD>  (236) 
2

>  <HBA>  (236) 
6

>  <SMILES>  (236) 
[H]c1c([H])c([H])c(OC([H])(c2nc(N([H])[H])nc(N([H])c3c([H])c([H])c([H])c([H])c3[H])n2)C([H])([H])[H])c([H])c1[H]

$$$$
Z1822975975_pose4
     RDKit          3D

 55 58  0  0  0  0  0  0  0  0999 V2000
    9.8338   46.8237   57.0864 C   0  0  0  0  0  0  0  0  0  0  0  0
   10.2710   47.3866   55.8553 O   0  0  0  0  0  0  0  0  0  0  0  0
    9.5678   47.0432   54.7323 C   0  0  0  0  0  0  0  0  0  0  0  0
    9.9342   47.3233   53.4213 C   0  0  0  0  0  0  0  0  0  0  0  0
    9.1066   46.9195   52.3718 C   0  0  0  0  0  0  0  0  0  0  0  0
    7.9042   46.2286   52.6130 C   0  0  0  0  0  0  0  0  0  0  0  0
    7.1002   45.8805   51.4015 C   0  0  0  0  0  0  0  0  0  0  0  0
    6.5765   46.7681   50.7320 O   0  0  0  0  0  0  0  0  0  0  0  0
    6.9355   44.5515   51.1053 N   0  0  0  0  0  0  0  0  0  0  0  0
    6.1417   44.1081   49.9681 C   0  0  0  0  0  0  0  0  0  0  0  0
    6.7105   42.8219   49.3718 C   0  0  0  0  0  0  0  0  0  0  0  0
    4.7288   43.9085   50.4036 C   0  0  0  0  0  0  0  0  0  0  0  0
    4.2328   43.7008   51.6053 N   0  0  0  0  0  0  0  0  0  0  0  0
    2.8916   43.5825   51.3476 C   0  0  0  0  0  0  0  0  0  0  0  0
    1.9071   43.3238   52.4287 C   0  0  0  0  0  0  0  0  0  0  0  0
    2.3702   43.7531   53.8217 C   0  0  0  0  0  0  0  0  0  0  0  0
    1.0886   43.9238   54.6353 C   0  0  0  0  0  0  0  0  0  0  0  0
   -0.0648   43.9254   53.6338 C   0  0  0  0  0  0  0  0  0  0  0  0
    0.5862   44.0723   52.2660 C   0  0  0  0  0  0  0  0  0  0  0  0
    2.5539   43.7067   50.0556 N   0  0  0  0  0  0  0  0  0  0  0  0
    3.7783   43.9277   49.4233 O   0  0  0  0  0  0  0  0  0  0  0  0
    7.5451   45.9157   53.9351 C   0  0  0  0  0  0  0  0  0  0  0  0
    6.3871   45.2061   54.1454 O   0  0  0  0  0  0  0  0  0  0  0  0
    5.5810   45.6088   55.2598 C   0  0  0  0  0  0  0  0  0  0  0  0
    4.4135   46.4460   54.8181 C   0  0  0  0  0  0  0  0  0  0  0  0
    4.1995   46.8188   53.3732 C   0  0  0  0  0  0  0  0  0  0  0  0
    4.5844   47.8752   54.3760 C   0  0  0  0  0  0  0  0  0  0  0  0
    8.3791   46.3471   54.9808 C   0  0  0  0  0  0  0  0  0  0  0  0
   10.7057   46.6097   57.7220 H   0  0  0  0  0  0  0  0  0  0  0  0
    9.1713   47.5357   57.6004 H   0  0  0  0  0  0  0  0  0  0  0  0
    9.2862   45.8903   56.8888 H   0  0  0  0  0  0  0  0  0  0  0  0
   10.8711   47.8601   53.2116 H   0  0  0  0  0  0  0  0  0  0  0  0
    9.3999   47.1459   51.3361 H   0  0  0  0  0  0  0  0  0  0  0  0
    7.4528   43.8562   51.6378 H   0  0  0  0  0  0  0  0  0  0  0  0
    6.1756   44.8790   49.1841 H   0  0  0  0  0  0  0  0  0  0  0  0
    6.6259   42.0081   50.1071 H   0  0  0  0  0  0  0  0  0  0  0  0
    6.1463   42.5571   48.4653 H   0  0  0  0  0  0  0  0  0  0  0  0
    7.7688   42.9741   49.1135 H   0  0  0  0  0  0  0  0  0  0  0  0
    1.7910   42.2335   52.3407 H   0  0  0  0  0  0  0  0  0  0  0  0
    3.0116   42.9801   54.2701 H   0  0  0  0  0  0  0  0  0  0  0  0
    2.9635   44.6788   53.7904 H   0  0  0  0  0  0  0  0  0  0  0  0
    0.9748   43.0905   55.3443 H   0  0  0  0  0  0  0  0  0  0  0  0
    1.1095   44.8559   55.2190 H   0  0  0  0  0  0  0  0  0  0  0  0
   -0.6270   42.9818   53.6930 H   0  0  0  0  0  0  0  0  0  0  0  0
   -0.7798   44.7368   53.8353 H   0  0  0  0  0  0  0  0  0  0  0  0
   -0.0340   43.6129   51.4822 H   0  0  0  0  0  0  0  0  0  0  0  0
    0.7182   45.1207   51.9605 H   0  0  0  0  0  0  0  0  0  0  0  0
    5.2042   44.7111   55.7719 H   0  0  0  0  0  0  0  0  0  0  0  0
    6.2032   46.2123   55.9370 H   0  0  0  0  0  0  0  0  0  0  0  0
    3.8143   45.9339   55.5854 H   0  0  0  0  0  0  0  0  0  0  0  0
    4.9221   46.4964   52.6091 H   0  0  0  0  0  0  0  0  0  0  0  0
    3.3798   46.6938   52.6505 H   0  0  0  0  0  0  0  0  0  0  0  0
    5.5879   48.3245   54.3436 H   0  0  0  0  0  0  0  0  0  0  0  0
    4.1616   48.8415   54.6884 H   0  0  0  0  0  0  0  0  0  0  0  0
    8.0907   46.1323   56.0203 H   0  0  0  0  0  0  0  0  0  0  0  0
  1  2  1  0
  2  3  1  0
  3  4  2  0
  4  5  1  0
  5  6  2  0
  6  7  1  0
  7  8  2  0
  7  9  1  0
  9 10  1  0
 10 11  1  0
 10 12  1  0
 12 13  2  0
 13 14  1  0
 14 15  1  0
 15 16  1  0
 16 17  1  0
 17 18  1  0
 18 19  1  0
 14 20  2  0
 20 21  1  0
  6 22  1  0
 22 23  1  0
 23 24  1  0
 24 25  1  0
 25 26  1  0
 26 27  1  0
 22 28  2  0
 28  3  1  0
 21 12  1  0
 27 25  1  0
 19 15  1  0
  1 29  1  0
  1 30  1  0
  1 31  1  0
  4 32  1  0
  5 33  1  0
  9 34  1  0
 10 35  1  0
 11 36  1  0
 11 37  1  0
 11 38  1  0
 15 39  1  0
 16 40  1  0
 16 41  1  0
 17 42  1  0
 17 43  1  0
 18 44  1  0
 18 45  1  0
 19 46  1  0
 19 47  1  0
 24 48  1  0
 24 49  1  0
 25 50  1  0
 26 51  1  0
 26 52  1  0
 27 53  1  0
 27 54  1  0
 28 55  1  0
M  END
>  <meeko>  (237) 
{"is_sidechain": false}

>  <CID>  (237) 
Z1822975975

>  <pose_index>  (237) 
4

>  <docking_score>  (237) 
-7.693

>  <rmsd_to_best_selected>  (237) 
1.8803141498914309

>  <MWT>  (237) 
385.46399999999966

>  <TPSA>  (237) 
86.48

>  <logP>  (237) 
4.015600000000004

>  <HBD>  (237) 
1

>  <HBA>  (237) 
6

>  <SMILES>  (237) 
[H]c1c([H])c(C(=O)N([H])C([H])(c2nc(C3([H])C([H])([H])C([H])([H])C([H])([H])C3([H])[H])no2)C([H])([H])[H])c(OC([H])([H])C2([H])C([H])([H])C2([H])[H])c([H])c1OC([H])([H])[H]

$$$$
Z1822975975_pose1
     RDKit          3D

 55 58  0  0  0  0  0  0  0  0999 V2000
   11.2460   47.4800   56.4440 C   0  0  0  0  0  0  0  0  0  0  0  0
   10.1460   48.1630   55.8540 O   0  0  0  0  0  0  0  0  0  0  0  0
    9.5850   47.5910   54.7450 C   0  0  0  0  0  0  0  0  0  0  0  0
   10.2440   46.8020   53.8110 C   0  0  0  0  0  0  0  0  0  0  0  0
    9.5420   46.2940   52.7160 C   0  0  0  0  0  0  0  0  0  0  0  0
    8.1710   46.5630   52.5380 C   0  0  0  0  0  0  0  0  0  0  0  0
    7.5480   45.9810   51.3100 C   0  0  0  0  0  0  0  0  0  0  0  0
    7.8210   46.4410   50.2040 O   0  0  0  0  0  0  0  0  0  0  0  0
    6.6400   44.9670   51.4740 N   0  0  0  0  0  0  0  0  0  0  0  0
    5.9520   44.3580   50.3450 C   0  0  0  0  0  0  0  0  0  0  0  0
    6.8270   43.2980   49.6780 C   0  0  0  0  0  0  0  0  0  0  0  0
    4.6670   43.7630   50.8140 C   0  0  0  0  0  0  0  0  0  0  0  0
    3.5780   44.3470   51.2680 N   0  0  0  0  0  0  0  0  0  0  0  0
    2.7700   43.2740   51.5460 C   0  0  0  0  0  0  0  0  0  0  0  0
    1.4050   43.4480   52.1050 C   0  0  0  0  0  0  0  0  0  0  0  0
    1.2090   42.8450   53.4960 C   0  0  0  0  0  0  0  0  0  0  0  0
    0.0080   43.5820   54.0870 C   0  0  0  0  0  0  0  0  0  0  0  0
   -0.2420   44.7940   53.1910 C   0  0  0  0  0  0  0  0  0  0  0  0
    0.9920   44.9040   52.3060 C   0  0  0  0  0  0  0  0  0  0  0  0
    3.3140   42.0780   51.2830 N   0  0  0  0  0  0  0  0  0  0  0  0
    4.5800   42.4010   50.7910 O   0  0  0  0  0  0  0  0  0  0  0  0
    7.4930   47.3350   53.4970 C   0  0  0  0  0  0  0  0  0  0  0  0
    6.1460   47.5530   53.3240 O   0  0  0  0  0  0  0  0  0  0  0  0
    5.2950   47.2150   54.4270 C   0  0  0  0  0  0  0  0  0  0  0  0
    4.4820   45.9860   54.1350 C   0  0  0  0  0  0  0  0  0  0  0  0
    3.6530   45.3060   55.1950 C   0  0  0  0  0  0  0  0  0  0  0  0
    4.8820   44.6280   54.6480 C   0  0  0  0  0  0  0  0  0  0  0  0
    8.2190   47.8550   54.5820 C   0  0  0  0  0  0  0  0  0  0  0  0
   11.1641   47.5308   57.5398 H   0  0  0  0  0  0  0  0  0  0  0  0
   11.2384   46.4275   56.1242 H   0  0  0  0  0  0  0  0  0  0  0  0
   12.1859   47.9536   56.1242 H   0  0  0  0  0  0  0  0  0  0  0  0
   11.3140   46.5783   53.9333 H   0  0  0  0  0  0  0  0  0  0  0  0
   10.0699   45.6718   51.9783 H   0  0  0  0  0  0  0  0  0  0  0  0
    6.5060   44.5650   52.3990 H   0  0  0  0  0  0  0  0  0  0  0  0
    5.7405   45.1332   49.5938 H   0  0  0  0  0  0  0  0  0  0  0  0
    7.3252   42.6944   50.4510 H   0  0  0  0  0  0  0  0  0  0  0  0
    6.2002   42.6464   49.0514 H   0  0  0  0  0  0  0  0  0  0  0  0
    7.5855   43.7899   49.0514 H   0  0  0  0  0  0  0  0  0  0  0  0
    0.8046   42.9379   51.3374 H   0  0  0  0  0  0  0  0  0  0  0  0
    1.0025   41.7670   53.4234 H   0  0  0  0  0  0  0  0  0  0  0  0
    2.1070   42.9546   54.1217 H   0  0  0  0  0  0  0  0  0  0  0  0
   -0.8748   42.9258   54.0935 H   0  0  0  0  0  0  0  0  0  0  0  0
    0.2015   43.8886   55.1255 H   0  0  0  0  0  0  0  0  0  0  0  0
   -1.1426   44.6404   52.5783 H   0  0  0  0  0  0  0  0  0  0  0  0
   -0.4073   45.7095   53.7780 H   0  0  0  0  0  0  0  0  0  0  0  0
    0.7478   45.3814   51.3455 H   0  0  0  0  0  0  0  0  0  0  0  0
    1.7874   45.5219   52.7481 H   0  0  0  0  0  0  0  0  0  0  0  0
    5.9168   47.0301   55.3153 H   0  0  0  0  0  0  0  0  0  0  0  0
    4.6047   48.0535   54.6015 H   0  0  0  0  0  0  0  0  0  0  0  0
    4.2761   46.4144   53.1430 H   0  0  0  0  0  0  0  0  0  0  0  0
    3.6507   45.6937   56.2244 H   0  0  0  0  0  0  0  0  0  0  0  0
    2.5927   45.0312   55.2963 H   0  0  0  0  0  0  0  0  0  0  0  0
    5.7770   44.5201   55.2784 H   0  0  0  0  0  0  0  0  0  0  0  0
    5.0904   43.6524   54.1846 H   0  0  0  0  0  0  0  0  0  0  0  0
    7.7021   48.4846   55.3212 H   0  0  0  0  0  0  0  0  0  0  0  0
  1  2  1  0
  2  3  1  0
  3  4  2  0
  4  5  1  0
  5  6  2  0
  6  7  1  0
  7  8  2  0
  7  9  1  0
  9 10  1  0
 10 11  1  0
 10 12  1  0
 12 13  2  0
 13 14  1  0
 14 15  1  0
 15 16  1  0
 16 17  1  0
 17 18  1  0
 18 19  1  0
 14 20  2  0
 20 21  1  0
  6 22  1  0
 22 23  1  0
 23 24  1  0
 24 25  1  0
 25 26  1  0
 26 27  1  0
 22 28  2  0
 28  3  1  0
 21 12  1  0
 27 25  1  0
 19 15  1  0
  1 29  1  0
  1 30  1  0
  1 31  1  0
  4 32  1  0
  5 33  1  0
  9 34  1  0
 10 35  1  0
 11 36  1  0
 11 37  1  0
 11 38  1  0
 15 39  1  0
 16 40  1  0
 16 41  1  0
 17 42  1  0
 17 43  1  0
 18 44  1  0
 18 45  1  0
 19 46  1  0
 19 47  1  0
 24 48  1  0
 24 49  1  0
 25 50  1  0
 26 51  1  0
 26 52  1  0
 27 53  1  0
 27 54  1  0
 28 55  1  0
M  END
>  <meeko>  (238) 
{"is_sidechain": false}

>  <CID>  (238) 
Z1822975975

>  <pose_index>  (238) 
1

>  <docking_score>  (238) 
-8.127

>  <rmsd_to_best_selected>  (238) 
0.0

>  <MWT>  (238) 
385.46399999999966

>  <TPSA>  (238) 
86.48

>  <logP>  (238) 
4.015600000000004

>  <HBD>  (238) 
1

>  <HBA>  (238) 
6

>  <SMILES>  (238) 
[H]c1c([H])c(C(=O)N([H])C([H])(c2nc(C3([H])C([H])([H])C([H])([H])C([H])([H])C3([H])[H])no2)C([H])([H])[H])c(OC([H])([H])C2([H])C([H])([H])C2([H])[H])c([H])c1OC([H])([H])[H]

$$$$
Z1822975975_pose2
     RDKit          3D

 55 58  0  0  0  0  0  0  0  0999 V2000
    9.4131   48.1849   56.7181 C   0  0  0  0  0  0  0  0  0  0  0  0
   10.2108   47.3406   55.8978 O   0  0  0  0  0  0  0  0  0  0  0  0
    9.6493   46.9012   54.7294 C   0  0  0  0  0  0  0  0  0  0  0  0
   10.3030   46.2078   53.7190 C   0  0  0  0  0  0  0  0  0  0  0  0
    9.6013   45.8325   52.5722 C   0  0  0  0  0  0  0  0  0  0  0  0
    8.2365   46.1401   52.4179 C   0  0  0  0  0  0  0  0  0  0  0  0
    7.6125   45.7050   51.1295 C   0  0  0  0  0  0  0  0  0  0  0  0
    7.8785   46.2957   50.0853 O   0  0  0  0  0  0  0  0  0  0  0  0
    6.7140   44.6707   51.1736 N   0  0  0  0  0  0  0  0  0  0  0  0
    6.0272   44.1961   49.9813 C   0  0  0  0  0  0  0  0  0  0  0  0
    6.7092   42.9520   49.4146 C   0  0  0  0  0  0  0  0  0  0  0  0
    4.6012   43.9093   50.3163 C   0  0  0  0  0  0  0  0  0  0  0  0
    3.9277   44.1398   51.4233 N   0  0  0  0  0  0  0  0  0  0  0  0
    2.6883   43.6411   51.1156 C   0  0  0  0  0  0  0  0  0  0  0  0
    1.5698   43.6719   52.0917 C   0  0  0  0  0  0  0  0  0  0  0  0
    1.9861   43.4185   53.5410 C   0  0  0  0  0  0  0  0  0  0  0  0
    0.8698   44.0230   54.3922 C   0  0  0  0  0  0  0  0  0  0  0  0
    0.0294   44.8888   53.4536 C   0  0  0  0  0  0  0  0  0  0  0  0
    0.8489   45.0157   52.1776 C   0  0  0  0  0  0  0  0  0  0  0  0
    2.5793   43.1245   49.8834 N   0  0  0  0  0  0  0  0  0  0  0  0
    3.8545   43.3040   49.3458 O   0  0  0  0  0  0  0  0  0  0  0  0
    7.5623   46.8138   53.4505 C   0  0  0  0  0  0  0  0  0  0  0  0
    6.2205   47.0685   53.2956 O   0  0  0  0  0  0  0  0  0  0  0  0
    5.4316   47.1015   54.4918 C   0  0  0  0  0  0  0  0  0  0  0  0
    4.5583   45.8846   54.6055 C   0  0  0  0  0  0  0  0  0  0  0  0
    4.2911   45.2130   55.9287 C   0  0  0  0  0  0  0  0  0  0  0  0
    5.1305   44.5199   54.8875 C   0  0  0  0  0  0  0  0  0  0  0  0
    8.2889   47.2015   54.5891 C   0  0  0  0  0  0  0  0  0  0  0  0
    9.7178   49.2318   56.5724 H   0  0  0  0  0  0  0  0  0  0  0  0
    8.3543   48.0695   56.4430 H   0  0  0  0  0  0  0  0  0  0  0  0
    9.5502   47.9067   57.7735 H   0  0  0  0  0  0  0  0  0  0  0  0
   11.3687   45.9555   53.8221 H   0  0  0  0  0  0  0  0  0  0  0  0
   10.1249   45.2860   51.7740 H   0  0  0  0  0  0  0  0  0  0  0  0
    6.5868   44.1591   52.0435 H   0  0  0  0  0  0  0  0  0  0  0  0
    6.0698   44.9778   49.2085 H   0  0  0  0  0  0  0  0  0  0  0  0
    7.7953   43.0247   49.5733 H   0  0  0  0  0  0  0  0  0  0  0  0
    6.3231   42.0574   49.9253 H   0  0  0  0  0  0  0  0  0  0  0  0
    6.5003   42.8779   48.3371 H   0  0  0  0  0  0  0  0  0  0  0  0
    0.9306   42.8713   51.6913 H   0  0  0  0  0  0  0  0  0  0  0  0
    2.0758   42.3391   53.7331 H   0  0  0  0  0  0  0  0  0  0  0  0
    2.9649   43.8648   53.7708 H   0  0  0  0  0  0  0  0  0  0  0  0
    0.2512   43.2257   54.8298 H   0  0  0  0  0  0  0  0  0  0  0  0
    1.2796   44.6177   55.2220 H   0  0  0  0  0  0  0  0  0  0  0  0
   -0.9358   44.4043   53.2443 H   0  0  0  0  0  0  0  0  0  0  0  0
   -0.1950   45.8711   53.8947 H   0  0  0  0  0  0  0  0  0  0  0  0
    0.1982   45.1709   51.3045 H   0  0  0  0  0  0  0  0  0  0  0  0
    1.5364   45.8744   52.1897 H   0  0  0  0  0  0  0  0  0  0  0  0
    6.1028   47.1431   55.3623 H   0  0  0  0  0  0  0  0  0  0  0  0
    4.7843   47.9902   54.4554 H   0  0  0  0  0  0  0  0  0  0  0  0
    3.9302   46.3182   53.8133 H   0  0  0  0  0  0  0  0  0  0  0  0
    4.7601   45.5987   56.8459 H   0  0  0  0  0  0  0  0  0  0  0  0
    3.3883   44.9518   56.5002 H   0  0  0  0  0  0  0  0  0  0  0  0
    6.2125   44.3992   55.0447 H   0  0  0  0  0  0  0  0  0  0  0  0
    5.0944   43.5425   54.3842 H   0  0  0  0  0  0  0  0  0  0  0  0
    7.7764   47.7546   55.3900 H   0  0  0  0  0  0  0  0  0  0  0  0
  1  2  1  0
  2  3  1  0
  3  4  2  0
  4  5  1  0
  5  6  2  0
  6  7  1  0
  7  8  2  0
  7  9  1  0
  9 10  1  0
 10 11  1  0
 10 12  1  0
 12 13  2  0
 13 14  1  0
 14 15  1  0
 15 16  1  0
 16 17  1  0
 17 18  1  0
 18 19  1  0
 14 20  2  0
 20 21  1  0
  6 22  1  0
 22 23  1  0
 23 24  1  0
 24 25  1  0
 25 26  1  0
 26 27  1  0
 22 28  2  0
 28  3  1  0
 21 12  1  0
 27 25  1  0
 19 15  1  0
  1 29  1  0
  1 30  1  0
  1 31  1  0
  4 32  1  0
  5 33  1  0
  9 34  1  0
 10 35  1  0
 11 36  1  0
 11 37  1  0
 11 38  1  0
 15 39  1  0
 16 40  1  0
 16 41  1  0
 17 42  1  0
 17 43  1  0
 18 44  1  0
 18 45  1  0
 19 46  1  0
 19 47  1  0
 24 48  1  0
 24 49  1  0
 25 50  1  0
 26 51  1  0
 26 52  1  0
 27 53  1  0
 27 54  1  0
 28 55  1  0
M  END
>  <meeko>  (239) 
{"is_sidechain": false}

>  <CID>  (239) 
Z1822975975

>  <pose_index>  (239) 
2

>  <docking_score>  (239) 
-8.103

>  <rmsd_to_best_selected>  (239) 
1.035395985974076

>  <MWT>  (239) 
385.46399999999966

>  <TPSA>  (239) 
86.48

>  <logP>  (239) 
4.015600000000004

>  <HBD>  (239) 
1

>  <HBA>  (239) 
6

>  <SMILES>  (239) 
[H]c1c([H])c(C(=O)N([H])C([H])(c2nc(C3([H])C([H])([H])C([H])([H])C([H])([H])C3([H])[H])no2)C([H])([H])[H])c(OC([H])([H])C2([H])C([H])([H])C2([H])[H])c([H])c1OC([H])([H])[H]

$$$$
Z1822975975_pose3
     RDKit          3D

 55 58  0  0  0  0  0  0  0  0999 V2000
   10.0415   48.0242   56.6403 C   0  0  0  0  0  0  0  0  0  0  0  0
   10.8583   47.3522   55.6883 O   0  0  0  0  0  0  0  0  0  0  0  0
   10.2358   46.8741   54.5671 C   0  0  0  0  0  0  0  0  0  0  0  0
   10.8663   46.3684   53.4362 C   0  0  0  0  0  0  0  0  0  0  0  0
   10.0984   45.9249   52.3573 C   0  0  0  0  0  0  0  0  0  0  0  0
    8.6924   45.9746   52.3926 C   0  0  0  0  0  0  0  0  0  0  0  0
    7.9930   45.4933   51.1604 C   0  0  0  0  0  0  0  0  0  0  0  0
    8.4357   45.7775   50.0507 O   0  0  0  0  0  0  0  0  0  0  0  0
    6.8350   44.7784   51.3229 N   0  0  0  0  0  0  0  0  0  0  0  0
    6.0611   44.2964   50.1866 C   0  0  0  0  0  0  0  0  0  0  0  0
    6.4743   42.8760   49.8079 C   0  0  0  0  0  0  0  0  0  0  0  0
    4.6093   44.3534   50.5216 C   0  0  0  0  0  0  0  0  0  0  0  0
    4.0061   44.3317   51.6913 N   0  0  0  0  0  0  0  0  0  0  0  0
    2.6833   44.3950   51.3362 C   0  0  0  0  0  0  0  0  0  0  0  0
    1.6003   44.3875   52.3518 C   0  0  0  0  0  0  0  0  0  0  0  0
    0.2832   43.7804   51.8678 C   0  0  0  0  0  0  0  0  0  0  0  0
   -0.4597   43.3673   53.1390 C   0  0  0  0  0  0  0  0  0  0  0  0
    0.5599   43.4270   54.2759 C   0  0  0  0  0  0  0  0  0  0  0  0
    1.9155   43.5615   53.5977 C   0  0  0  0  0  0  0  0  0  0  0  0
    2.4579   44.4543   50.0160 N   0  0  0  0  0  0  0  0  0  0  0  0
    3.7421   44.4299   49.4685 O   0  0  0  0  0  0  0  0  0  0  0  0
    8.0491   46.4559   53.5466 C   0  0  0  0  0  0  0  0  0  0  0  0
    6.6752   46.4583   53.5731 O   0  0  0  0  0  0  0  0  0  0  0  0
    6.0553   45.9083   54.7442 C   0  0  0  0  0  0  0  0  0  0  0  0
    4.9028   46.7554   55.2024 C   0  0  0  0  0  0  0  0  0  0  0  0
    3.6377   46.1506   55.7553 C   0  0  0  0  0  0  0  0  0  0  0  0
    3.6201   46.8434   54.4183 C   0  0  0  0  0  0  0  0  0  0  0  0
    8.8378   46.9175   54.6145 C   0  0  0  0  0  0  0  0  0  0  0  0
   10.5761   48.9051   57.0253 H   0  0  0  0  0  0  0  0  0  0  0  0
    9.1055   48.3445   56.1594 H   0  0  0  0  0  0  0  0  0  0  0  0
    9.8116   47.3423   57.4724 H   0  0  0  0  0  0  0  0  0  0  0  0
   11.9642   46.3177   53.3913 H   0  0  0  0  0  0  0  0  0  0  0  0
   10.6020   45.5292   51.4630 H   0  0  0  0  0  0  0  0  0  0  0  0
    6.5498   44.4986   52.2583 H   0  0  0  0  0  0  0  0  0  0  0  0
    6.2586   44.9410   49.3174 H   0  0  0  0  0  0  0  0  0  0  0  0
    7.5360   42.7253   50.0532 H   0  0  0  0  0  0  0  0  0  0  0  0
    5.8624   42.1543   50.3688 H   0  0  0  0  0  0  0  0  0  0  0  0
    6.3222   42.7252   48.7289 H   0  0  0  0  0  0  0  0  0  0  0  0
    1.5147   45.4632   52.5653 H   0  0  0  0  0  0  0  0  0  0  0  0
   -0.3001   44.5237   51.3046 H   0  0  0  0  0  0  0  0  0  0  0  0
    0.4474   42.9277   51.1925 H   0  0  0  0  0  0  0  0  0  0  0  0
   -1.2901   44.0612   53.3364 H   0  0  0  0  0  0  0  0  0  0  0  0
   -0.8869   42.3585   53.0402 H   0  0  0  0  0  0  0  0  0  0  0  0
    0.3652   44.2957   54.9220 H   0  0  0  0  0  0  0  0  0  0  0  0
    0.5103   42.5343   54.9166 H   0  0  0  0  0  0  0  0  0  0  0  0
    2.6318   44.0852   54.2478 H   0  0  0  0  0  0  0  0  0  0  0  0
    2.3811   42.5920   53.3669 H   0  0  0  0  0  0  0  0  0  0  0  0
    5.6874   44.8977   54.5134 H   0  0  0  0  0  0  0  0  0  0  0  0
    6.8037   45.8764   55.5498 H   0  0  0  0  0  0  0  0  0  0  0  0
    5.6426   47.4817   55.5701 H   0  0  0  0  0  0  0  0  0  0  0  0
    3.5287   45.0574   55.8098 H   0  0  0  0  0  0  0  0  0  0  0  0
    3.0710   46.2538   56.6924 H   0  0  0  0  0  0  0  0  0  0  0  0
    3.4979   46.2561   53.4963 H   0  0  0  0  0  0  0  0  0  0  0  0
    3.0348   47.6623   53.9746 H   0  0  0  0  0  0  0  0  0  0  0  0
    8.3439   47.3230   55.5098 H   0  0  0  0  0  0  0  0  0  0  0  0
  1  2  1  0
  2  3  1  0
  3  4  2  0
  4  5  1  0
  5  6  2  0
  6  7  1  0
  7  8  2  0
  7  9  1  0
  9 10  1  0
 10 11  1  0
 10 12  1  0
 12 13  2  0
 13 14  1  0
 14 15  1  0
 15 16  1  0
 16 17  1  0
 17 18  1  0
 18 19  1  0
 14 20  2  0
 20 21  1  0
  6 22  1  0
 22 23  1  0
 23 24  1  0
 24 25  1  0
 25 26  1  0
 26 27  1  0
 22 28  2  0
 28  3  1  0
 21 12  1  0
 27 25  1  0
 19 15  1  0
  1 29  1  0
  1 30  1  0
  1 31  1  0
  4 32  1  0
  5 33  1  0
  9 34  1  0
 10 35  1  0
 11 36  1  0
 11 37  1  0
 11 38  1  0
 15 39  1  0
 16 40  1  0
 16 41  1  0
 17 42  1  0
 17 43  1  0
 18 44  1  0
 18 45  1  0
 19 46  1  0
 19 47  1  0
 24 48  1  0
 24 49  1  0
 25 50  1  0
 26 51  1  0
 26 52  1  0
 27 53  1  0
 27 54  1  0
 28 55  1  0
M  END
>  <meeko>  (240) 
{"is_sidechain": false}

>  <CID>  (240) 
Z1822975975

>  <pose_index>  (240) 
3

>  <docking_score>  (240) 
-7.825

>  <rmsd_to_best_selected>  (240) 
1.7038433720691262

>  <MWT>  (240) 
385.46399999999966

>  <TPSA>  (240) 
86.48

>  <logP>  (240) 
4.015600000000004

>  <HBD>  (240) 
1

>  <HBA>  (240) 
6

>  <SMILES>  (240) 
[H]c1c([H])c(C(=O)N([H])C([H])(c2nc(C3([H])C([H])([H])C([H])([H])C([H])([H])C3([H])[H])no2)C([H])([H])[H])c(OC([H])([H])C2([H])C([H])([H])C2([H])[H])c([H])c1OC([H])([H])[H]

$$$$
Z1822975975_pose6
     RDKit          3D

 55 58  0  0  0  0  0  0  0  0999 V2000
   10.2166   48.4501   56.4820 C   0  0  0  0  0  0  0  0  0  0  0  0
   10.5074   47.2004   55.8681 O   0  0  0  0  0  0  0  0  0  0  0  0
    9.8281   46.9024   54.7177 C   0  0  0  0  0  0  0  0  0  0  0  0
   10.1665   47.3217   53.4371 C   0  0  0  0  0  0  0  0  0  0  0  0
    9.3682   46.9472   52.3539 C   0  0  0  0  0  0  0  0  0  0  0  0
    8.2241   46.1478   52.5312 C   0  0  0  0  0  0  0  0  0  0  0  0
    7.4438   45.8446   51.2920 C   0  0  0  0  0  0  0  0  0  0  0  0
    7.1829   46.7403   50.4925 O   0  0  0  0  0  0  0  0  0  0  0  0
    6.9995   44.5594   51.1167 N   0  0  0  0  0  0  0  0  0  0  0  0
    6.2031   44.1699   49.9614 C   0  0  0  0  0  0  0  0  0  0  0  0
    6.2986   42.6662   49.7125 C   0  0  0  0  0  0  0  0  0  0  0  0
    4.7856   44.5794   50.1826 C   0  0  0  0  0  0  0  0  0  0  0  0
    4.0129   44.4261   51.2375 N   0  0  0  0  0  0  0  0  0  0  0  0
    2.8358   44.9898   50.8166 C   0  0  0  0  0  0  0  0  0  0  0  0
    1.6360   45.0398   51.6913 C   0  0  0  0  0  0  0  0  0  0  0  0
    0.6042   43.9470   51.4129 C   0  0  0  0  0  0  0  0  0  0  0  0
   -0.2121   43.8286   52.7005 C   0  0  0  0  0  0  0  0  0  0  0  0
    0.5630   44.5872   53.7760 C   0  0  0  0  0  0  0  0  0  0  0  0
    1.9369   44.8506   53.1763 C   0  0  0  0  0  0  0  0  0  0  0  0
    2.8586   45.4732   49.5667 N   0  0  0  0  0  0  0  0  0  0  0  0
    4.1595   45.2034   49.1412 O   0  0  0  0  0  0  0  0  0  0  0  0
    7.8943   45.6955   53.8208 C   0  0  0  0  0  0  0  0  0  0  0  0
    6.7942   44.8837   53.9651 O   0  0  0  0  0  0  0  0  0  0  0  0
    5.6886   45.4266   54.6994 C   0  0  0  0  0  0  0  0  0  0  0  0
    5.1982   44.4626   55.7424 C   0  0  0  0  0  0  0  0  0  0  0  0
    3.7295   44.2574   56.0121 C   0  0  0  0  0  0  0  0  0  0  0  0
    4.5969   44.9353   57.0401 C   0  0  0  0  0  0  0  0  0  0  0  0
    8.6966   46.0983   54.9025 C   0  0  0  0  0  0  0  0  0  0  0  0
   11.0216   49.1652   56.2571 H   0  0  0  0  0  0  0  0  0  0  0  0
    9.2632   48.8368   56.0927 H   0  0  0  0  0  0  0  0  0  0  0  0
   10.1401   48.3147   57.5709 H   0  0  0  0  0  0  0  0  0  0  0  0
   11.0584   47.9453   53.2771 H   0  0  0  0  0  0  0  0  0  0  0  0
    9.6393   47.2839   51.3424 H   0  0  0  0  0  0  0  0  0  0  0  0
    7.3071   43.8348   51.7619 H   0  0  0  0  0  0  0  0  0  0  0  0
    6.5942   44.6782   49.0677 H   0  0  0  0  0  0  0  0  0  0  0  0
    7.1218   42.4621   49.0120 H   0  0  0  0  0  0  0  0  0  0  0  0
    6.4900   42.1485   50.6640 H   0  0  0  0  0  0  0  0  0  0  0  0
    5.3529   42.3050   49.2822 H   0  0  0  0  0  0  0  0  0  0  0  0
    1.2559   46.0455   51.4589 H   0  0  0  0  0  0  0  0  0  0  0  0
   -0.0431   44.2332   50.5709 H   0  0  0  0  0  0  0  0  0  0  0  0
    1.0792   42.9936   51.1383 H   0  0  0  0  0  0  0  0  0  0  0  0
   -1.2073   44.2763   52.5622 H   0  0  0  0  0  0  0  0  0  0  0  0
   -0.3586   42.7758   52.9835 H   0  0  0  0  0  0  0  0  0  0  0  0
    0.0599   45.5355   54.0159 H   0  0  0  0  0  0  0  0  0  0  0  0
    0.6292   44.0141   54.7125 H   0  0  0  0  0  0  0  0  0  0  0  0
    2.3883   45.7569   53.6063 H   0  0  0  0  0  0  0  0  0  0  0  0
    2.6565   44.0420   53.3722 H   0  0  0  0  0  0  0  0  0  0  0  0
    6.0085   46.3561   55.1930 H   0  0  0  0  0  0  0  0  0  0  0  0
    4.8670   45.6223   53.9946 H   0  0  0  0  0  0  0  0  0  0  0  0
    6.0367   43.8067   55.4653 H   0  0  0  0  0  0  0  0  0  0  0  0
    2.9813   44.8391   55.4538 H   0  0  0  0  0  0  0  0  0  0  0  0
    3.0529   43.3901   56.0150 H   0  0  0  0  0  0  0  0  0  0  0  0
    4.4818   46.0122   57.2328 H   0  0  0  0  0  0  0  0  0  0  0  0
    4.8157   44.7680   58.1051 H   0  0  0  0  0  0  0  0  0  0  0  0
    8.4291   45.7740   55.9190 H   0  0  0  0  0  0  0  0  0  0  0  0
  1  2  1  0
  2  3  1  0
  3  4  2  0
  4  5  1  0
  5  6  2  0
  6  7  1  0
  7  8  2  0
  7  9  1  0
  9 10  1  0
 10 11  1  0
 10 12  1  0
 12 13  2  0
 13 14  1  0
 14 15  1  0
 15 16  1  0
 16 17  1  0
 17 18  1  0
 18 19  1  0
 14 20  2  0
 20 21  1  0
  6 22  1  0
 22 23  1  0
 23 24  1  0
 24 25  1  0
 25 26  1  0
 26 27  1  0
 22 28  2  0
 28  3  1  0
 21 12  1  0
 27 25  1  0
 19 15  1  0
  1 29  1  0
  1 30  1  0
  1 31  1  0
  4 32  1  0
  5 33  1  0
  9 34  1  0
 10 35  1  0
 11 36  1  0
 11 37  1  0
 11 38  1  0
 15 39  1  0
 16 40  1  0
 16 41  1  0
 17 42  1  0
 17 43  1  0
 18 44  1  0
 18 45  1  0
 19 46  1  0
 19 47  1  0
 24 48  1  0
 24 49  1  0
 25 50  1  0
 26 51  1  0
 26 52  1  0
 27 53  1  0
 27 54  1  0
 28 55  1  0
M  END
>  <meeko>  (241) 
{"is_sidechain": false}

>  <CID>  (241) 
Z1822975975

>  <pose_index>  (241) 
6

>  <docking_score>  (241) 
-7.495

>  <rmsd_to_best_selected>  (241) 
1.9933785145974556

>  <MWT>  (241) 
385.46399999999966

>  <TPSA>  (241) 
86.48

>  <logP>  (241) 
4.015600000000004

>  <HBD>  (241) 
1

>  <HBA>  (241) 
6

>  <SMILES>  (241) 
[H]c1c([H])c(C(=O)N([H])C([H])(c2nc(C3([H])C([H])([H])C([H])([H])C([H])([H])C3([H])[H])no2)C([H])([H])[H])c(OC([H])([H])C2([H])C([H])([H])C2([H])[H])c([H])c1OC([H])([H])[H]

$$$$
Z1833516258_pose1
     RDKit          3D

 38 41  0  0  0  0  0  0  0  0999 V2000
    7.7680   44.5180   49.4320 C   0  0  0  0  0  0  0  0  0  0  0  0
    7.7460   45.2980   50.6990 C   0  0  0  0  0  0  0  0  0  0  0  0
    8.9690   45.7220   51.2020 N   0  0  0  0  0  0  0  0  0  0  0  0
    8.7940   46.4460   52.2850 C   0  0  0  0  0  0  0  0  0  0  0  0
    9.9080   47.0670   53.0780 C   0  0  0  0  0  0  0  0  0  0  0  0
    9.7140   47.0240   54.5710 C   0  0  0  0  0  0  0  0  0  0  0  0
    9.4980   48.2970   55.3480 C   0  0  0  0  0  0  0  0  0  0  0  0
   10.7870   47.5370   55.4980 C   0  0  0  0  0  0  0  0  0  0  0  0
    7.1620   46.6640   52.7650 S   0  0  0  0  0  0  0  0  0  0  0  0
    6.6430   45.6870   51.4480 C   0  0  0  0  0  0  0  0  0  0  0  0
    5.2220   45.4310   51.2780 C   0  0  0  0  0  0  0  0  0  0  0  0
    4.5350   46.0410   50.4640 O   0  0  0  0  0  0  0  0  0  0  0  0
    4.7270   44.4650   52.1320 N   0  0  0  0  0  0  0  0  0  0  0  0
    3.4190   43.9460   52.2030 C   0  0  0  0  0  0  0  0  0  0  0  0
    2.7990   43.1570   51.2260 C   0  0  0  0  0  0  0  0  0  0  0  0
    1.4900   42.6900   51.4040 C   0  0  0  0  0  0  0  0  0  0  0  0
    0.7510   42.9860   52.5550 C   0  0  0  0  0  0  0  0  0  0  0  0
    1.3880   43.7690   53.5170 C   0  0  0  0  0  0  0  0  0  0  0  0
    0.9890   44.2460   54.7400 N   0  0  0  0  0  0  0  0  0  0  0  0
    2.0230   44.9660   55.2720 C   0  0  0  0  0  0  0  0  0  0  0  0
    3.0660   44.9870   54.4720 N   0  0  0  0  0  0  0  0  0  0  0  0
    2.6850   44.2470   53.3700 C   0  0  0  0  0  0  0  0  0  0  0  0
    7.7983   43.4431   49.6636 H   0  0  0  0  0  0  0  0  0  0  0  0
    6.8632   44.7418   48.8479 H   0  0  0  0  0  0  0  0  0  0  0  0
    8.6588   44.7925   48.8479 H   0  0  0  0  0  0  0  0  0  0  0  0
   10.8393   46.5334   52.8375 H   0  0  0  0  0  0  0  0  0  0  0  0
    9.9354   48.1303   52.7975 H   0  0  0  0  0  0  0  0  0  0  0  0
    9.1688   46.0748   54.4622 H   0  0  0  0  0  0  0  0  0  0  0  0
    9.4882   49.2650   54.8255 H   0  0  0  0  0  0  0  0  0  0  0  0
    8.7263   48.6629   56.0413 H   0  0  0  0  0  0  0  0  0  0  0  0
   11.7195   47.9491   55.0850 H   0  0  0  0  0  0  0  0  0  0  0  0
   11.3479   47.1171   56.3460 H   0  0  0  0  0  0  0  0  0  0  0  0
    5.3380   44.0990   52.8550 H   0  0  0  0  0  0  0  0  0  0  0  0
    3.3467   42.9006   50.3071 H   0  0  0  0  0  0  0  0  0  0  0  0
    1.0305   42.0736   50.6173 H   0  0  0  0  0  0  0  0  0  0  0  0
   -0.2773   42.6206   52.6934 H   0  0  0  0  0  0  0  0  0  0  0  0
    0.0900   44.0930   55.1730 H   0  0  0  0  0  0  0  0  0  0  0  0
    1.9864   45.4668   56.2507 H   0  0  0  0  0  0  0  0  0  0  0  0
  1  2  1  0
  2  3  1  0
  3  4  2  0
  4  5  1  0
  5  6  1  0
  6  7  1  0
  7  8  1  0
  4  9  1  0
  9 10  1  0
 10 11  1  0
 11 12  2  0
 11 13  1  0
 13 14  1  0
 14 15  2  0
 15 16  1  0
 16 17  2  0
 17 18  1  0
 18 19  1  0
 19 20  1  0
 20 21  2  0
 21 22  1  0
 10  2  2  0
 22 14  1  0
  8  6  1  0
 22 18  2  0
  1 23  1  0
  1 24  1  0
  1 25  1  0
  5 26  1  0
  5 27  1  0
  6 28  1  0
  7 29  1  0
  7 30  1  0
  8 31  1  0
  8 32  1  0
 13 33  1  0
 15 34  1  0
 16 35  1  0
 17 36  1  0
 19 37  1  0
 20 38  1  0
M  END
>  <meeko>  (242) 
{"is_sidechain": false}

>  <CID>  (242) 
Z1833516258

>  <pose_index>  (242) 
1

>  <docking_score>  (242) 
-8.259

>  <rmsd_to_best_selected>  (242) 
0.0

>  <MWT>  (242) 
312.3979999999997

>  <TPSA>  (242) 
70.67

>  <logP>  (242) 
3.5326200000000005

>  <HBD>  (242) 
2

>  <HBA>  (242) 
4

>  <SMILES>  (242) 
[H]c1c([H])c([H])c2c(nc([H])n2[H])c1N([H])C(=O)c1sc(C([H])([H])C2([H])C([H])([H])C2([H])[H])nc1C([H])([H])[H]

$$$$
Z1833516258_pose3
     RDKit          3D

 38 41  0  0  0  0  0  0  0  0999 V2000
    7.8884   45.4690   49.4623 C   0  0  0  0  0  0  0  0  0  0  0  0
    7.7187   45.9132   50.8733 C   0  0  0  0  0  0  0  0  0  0  0  0
    8.6723   46.7855   51.3802 N   0  0  0  0  0  0  0  0  0  0  0  0
    8.3649   47.1375   52.6096 C   0  0  0  0  0  0  0  0  0  0  0  0
    9.1804   48.0774   53.4498 C   0  0  0  0  0  0  0  0  0  0  0  0
   10.4299   47.4707   54.0335 C   0  0  0  0  0  0  0  0  0  0  0  0
   10.4712   46.0058   54.3856 C   0  0  0  0  0  0  0  0  0  0  0  0
   10.4695   47.0392   55.4777 C   0  0  0  0  0  0  0  0  0  0  0  0
    6.9202   46.4500   53.2287 S   0  0  0  0  0  0  0  0  0  0  0  0
    6.7019   45.5836   51.7601 C   0  0  0  0  0  0  0  0  0  0  0  0
    5.5528   44.7022   51.6266 C   0  0  0  0  0  0  0  0  0  0  0  0
    5.6283   43.5966   51.0980 O   0  0  0  0  0  0  0  0  0  0  0  0
    4.3819   45.2394   52.1230 N   0  0  0  0  0  0  0  0  0  0  0  0
    3.1063   44.6437   52.1947 C   0  0  0  0  0  0  0  0  0  0  0  0
    2.1444   44.6501   51.1777 C   0  0  0  0  0  0  0  0  0  0  0  0
    0.9054   44.0208   51.3569 C   0  0  0  0  0  0  0  0  0  0  0  0
    0.5782   43.3612   52.5476 C   0  0  0  0  0  0  0  0  0  0  0  0
    1.5515   43.3626   53.5448 C   0  0  0  0  0  0  0  0  0  0  0  0
    1.5880   42.8297   54.8099 N   0  0  0  0  0  0  0  0  0  0  0  0
    2.8041   43.1286   55.3600 C   0  0  0  0  0  0  0  0  0  0  0  0
    3.5578   43.8191   54.5337 N   0  0  0  0  0  0  0  0  0  0  0  0
    2.7894   43.9766   53.3972 C   0  0  0  0  0  0  0  0  0  0  0  0
    8.0470   44.3808   49.4370 H   0  0  0  0  0  0  0  0  0  0  0  0
    6.9853   45.7214   48.8873 H   0  0  0  0  0  0  0  0  0  0  0  0
    8.7583   45.9767   49.0202 H   0  0  0  0  0  0  0  0  0  0  0  0
    9.4742   48.9319   52.8225 H   0  0  0  0  0  0  0  0  0  0  0  0
    8.5461   48.3661   54.3009 H   0  0  0  0  0  0  0  0  0  0  0  0
   11.0363   48.1394   53.4050 H   0  0  0  0  0  0  0  0  0  0  0  0
    9.5839   45.3762   54.2232 H   0  0  0  0  0  0  0  0  0  0  0  0
   11.1211   45.1599   54.1169 H   0  0  0  0  0  0  0  0  0  0  0  0
    9.5811   47.1655   56.1139 H   0  0  0  0  0  0  0  0  0  0  0  0
   11.1176   47.2620   56.3382 H   0  0  0  0  0  0  0  0  0  0  0  0
    4.3855   46.2060   52.4323 H   0  0  0  0  0  0  0  0  0  0  0  0
    2.3641   45.1555   50.2257 H   0  0  0  0  0  0  0  0  0  0  0  0
    0.1696   44.0457   50.5396 H   0  0  0  0  0  0  0  0  0  0  0  0
   -0.3950   42.8682   52.6885 H   0  0  0  0  0  0  0  0  0  0  0  0
    0.8486   42.3094   55.2559 H   0  0  0  0  0  0  0  0  0  0  0  0
    3.1139   42.8274   56.3716 H   0  0  0  0  0  0  0  0  0  0  0  0
  1  2  1  0
  2  3  1  0
  3  4  2  0
  4  5  1  0
  5  6  1  0
  6  7  1  0
  7  8  1  0
  4  9  1  0
  9 10  1  0
 10 11  1  0
 11 12  2  0
 11 13  1  0
 13 14  1  0
 14 15  2  0
 15 16  1  0
 16 17  2  0
 17 18  1  0
 18 19  1  0
 19 20  1  0
 20 21  2  0
 21 22  1  0
 10  2  2  0
 22 14  1  0
  8  6  1  0
 22 18  2  0
  1 23  1  0
  1 24  1  0
  1 25  1  0
  5 26  1  0
  5 27  1  0
  6 28  1  0
  7 29  1  0
  7 30  1  0
  8 31  1  0
  8 32  1  0
 13 33  1  0
 15 34  1  0
 16 35  1  0
 17 36  1  0
 19 37  1  0
 20 38  1  0
M  END
>  <meeko>  (243) 
{"is_sidechain": false}

>  <CID>  (243) 
Z1833516258

>  <pose_index>  (243) 
3

>  <docking_score>  (243) 
-8.124

>  <rmsd_to_best_selected>  (243) 
1.4191277090447556

>  <MWT>  (243) 
312.3979999999997

>  <TPSA>  (243) 
70.67

>  <logP>  (243) 
3.5326200000000005

>  <HBD>  (243) 
2

>  <HBA>  (243) 
4

>  <SMILES>  (243) 
[H]c1c([H])c([H])c2c(nc([H])n2[H])c1N([H])C(=O)c1sc(C([H])([H])C2([H])C([H])([H])C2([H])[H])nc1C([H])([H])[H]

$$$$
Z1833516258_pose6
     RDKit          3D

 38 41  0  0  0  0  0  0  0  0999 V2000
    7.3793   45.1112   50.2452 C   0  0  0  0  0  0  0  0  0  0  0  0
    7.2880   45.9252   51.4878 C   0  0  0  0  0  0  0  0  0  0  0  0
    8.4779   46.4067   52.0174 N   0  0  0  0  0  0  0  0  0  0  0  0
    8.2397   47.1535   53.0736 C   0  0  0  0  0  0  0  0  0  0  0  0
    9.3042   47.8363   53.8841 C   0  0  0  0  0  0  0  0  0  0  0  0
   10.4853   46.9657   54.2265 C   0  0  0  0  0  0  0  0  0  0  0  0
   11.3739   47.3127   55.3937 C   0  0  0  0  0  0  0  0  0  0  0  0
   11.8911   47.4535   53.9883 C   0  0  0  0  0  0  0  0  0  0  0  0
    6.5855   47.3267   53.4913 S   0  0  0  0  0  0  0  0  0  0  0  0
    6.1468   46.2952   52.1878 C   0  0  0  0  0  0  0  0  0  0  0  0
    4.7416   45.9836   51.9782 C   0  0  0  0  0  0  0  0  0  0  0  0
    3.9065   46.8468   51.7232 O   0  0  0  0  0  0  0  0  0  0  0  0
    4.4449   44.6430   52.1193 N   0  0  0  0  0  0  0  0  0  0  0  0
    3.2051   43.9977   51.9413 C   0  0  0  0  0  0  0  0  0  0  0  0
    2.6731   43.5750   50.7173 C   0  0  0  0  0  0  0  0  0  0  0  0
    1.4265   42.9365   50.6575 C   0  0  0  0  0  0  0  0  0  0  0  0
    0.6663   42.6938   51.8075 C   0  0  0  0  0  0  0  0  0  0  0  0
    1.2154   43.1186   53.0162 C   0  0  0  0  0  0  0  0  0  0  0  0
    0.7734   43.0513   54.3138 N   0  0  0  0  0  0  0  0  0  0  0  0
    1.7225   43.6238   55.1153 C   0  0  0  0  0  0  0  0  0  0  0  0
    2.7504   44.0576   54.4203 N   0  0  0  0  0  0  0  0  0  0  0  0
    2.4495   43.7531   53.1077 C   0  0  0  0  0  0  0  0  0  0  0  0
    7.1720   44.0570   50.4814 H   0  0  0  0  0  0  0  0  0  0  0  0
    6.6426   45.4747   49.5137 H   0  0  0  0  0  0  0  0  0  0  0  0
    8.3907   45.2001   49.8221 H   0  0  0  0  0  0  0  0  0  0  0  0
    9.6698   48.7014   53.3114 H   0  0  0  0  0  0  0  0  0  0  0  0
    8.8368   48.1183   54.8391 H   0  0  0  0  0  0  0  0  0  0  0  0
    9.9077   46.0804   53.9222 H   0  0  0  0  0  0  0  0  0  0  0  0
   11.1659   48.2097   55.9955 H   0  0  0  0  0  0  0  0  0  0  0  0
   11.7120   46.7845   56.2974 H   0  0  0  0  0  0  0  0  0  0  0  0
   12.0614   48.4534   53.5627 H   0  0  0  0  0  0  0  0  0  0  0  0
   12.7642   47.0708   53.4393 H   0  0  0  0  0  0  0  0  0  0  0  0
    5.1723   44.0186   52.4495 H   0  0  0  0  0  0  0  0  0  0  0  0
    3.2406   43.7459   49.7907 H   0  0  0  0  0  0  0  0  0  0  0  0
    1.0350   42.6177   49.6802 H   0  0  0  0  0  0  0  0  0  0  0  0
   -0.3126   42.1942   51.7599 H   0  0  0  0  0  0  0  0  0  0  0  0
   -0.0984   42.6496   54.6227 H   0  0  0  0  0  0  0  0  0  0  0  0
    1.6361   43.7106   56.2085 H   0  0  0  0  0  0  0  0  0  0  0  0
  1  2  1  0
  2  3  1  0
  3  4  2  0
  4  5  1  0
  5  6  1  0
  6  7  1  0
  7  8  1  0
  4  9  1  0
  9 10  1  0
 10 11  1  0
 11 12  2  0
 11 13  1  0
 13 14  1  0
 14 15  2  0
 15 16  1  0
 16 17  2  0
 17 18  1  0
 18 19  1  0
 19 20  1  0
 20 21  2  0
 21 22  1  0
 10  2  2  0
 22 14  1  0
  8  6  1  0
 22 18  2  0
  1 23  1  0
  1 24  1  0
  1 25  1  0
  5 26  1  0
  5 27  1  0
  6 28  1  0
  7 29  1  0
  7 30  1  0
  8 31  1  0
  8 32  1  0
 13 33  1  0
 15 34  1  0
 16 35  1  0
 17 36  1  0
 19 37  1  0
 20 38  1  0
M  END
>  <meeko>  (244) 
{"is_sidechain": false}

>  <CID>  (244) 
Z1833516258

>  <pose_index>  (244) 
6

>  <docking_score>  (244) 
-7.731

>  <rmsd_to_best_selected>  (244) 
1.2433545848896674

>  <MWT>  (244) 
312.3979999999997

>  <TPSA>  (244) 
70.67

>  <logP>  (244) 
3.5326200000000005

>  <HBD>  (244) 
2

>  <HBA>  (244) 
4

>  <SMILES>  (244) 
[H]c1c([H])c([H])c2c(nc([H])n2[H])c1N([H])C(=O)c1sc(C([H])([H])C2([H])C([H])([H])C2([H])[H])nc1C([H])([H])[H]

$$$$
Z1833516258_pose8
     RDKit          3D

 38 41  0  0  0  0  0  0  0  0999 V2000
    7.8555   43.6260   51.7469 C   0  0  0  0  0  0  0  0  0  0  0  0
    7.5900   45.0167   52.2060 C   0  0  0  0  0  0  0  0  0  0  0  0
    8.6391   45.6935   52.8143 N   0  0  0  0  0  0  0  0  0  0  0  0
    8.2807   46.9233   53.1125 C   0  0  0  0  0  0  0  0  0  0  0  0
    9.1784   47.9296   53.7735 C   0  0  0  0  0  0  0  0  0  0  0  0
   10.5876   47.4524   54.0078 C   0  0  0  0  0  0  0  0  0  0  0  0
   11.4831   48.1734   54.9829 C   0  0  0  0  0  0  0  0  0  0  0  0
   11.7610   48.2557   53.5075 C   0  0  0  0  0  0  0  0  0  0  0  0
    6.6738   47.3427   52.6820 S   0  0  0  0  0  0  0  0  0  0  0  0
    6.4172   45.7510   52.0835 C   0  0  0  0  0  0  0  0  0  0  0  0
    5.1137   45.4049   51.5399 C   0  0  0  0  0  0  0  0  0  0  0  0
    4.6523   45.9463   50.5402 O   0  0  0  0  0  0  0  0  0  0  0  0
    4.4485   44.4387   52.2689 N   0  0  0  0  0  0  0  0  0  0  0  0
    3.1996   43.8447   52.0001 C   0  0  0  0  0  0  0  0  0  0  0  0
    2.9129   42.9986   50.9229 C   0  0  0  0  0  0  0  0  0  0  0  0
    1.6309   42.4583   50.7540 C   0  0  0  0  0  0  0  0  0  0  0  0
    0.5897   42.7368   51.6475 C   0  0  0  0  0  0  0  0  0  0  0  0
    0.8980   43.5785   52.7159 C   0  0  0  0  0  0  0  0  0  0  0  0
    0.1547   44.0589   53.7650 N   0  0  0  0  0  0  0  0  0  0  0  0
    0.9653   44.8508   54.5304 C   0  0  0  0  0  0  0  0  0  0  0  0
    2.1847   44.9144   54.0455 N   0  0  0  0  0  0  0  0  0  0  0  0
    2.1589   44.1281   52.9106 C   0  0  0  0  0  0  0  0  0  0  0  0
    8.8293   43.2917   52.1341 H   0  0  0  0  0  0  0  0  0  0  0  0
    7.0641   42.9594   52.1199 H   0  0  0  0  0  0  0  0  0  0  0  0
    7.8694   43.5992   50.6473 H   0  0  0  0  0  0  0  0  0  0  0  0
    9.2205   48.8240   53.1346 H   0  0  0  0  0  0  0  0  0  0  0  0
    8.7471   48.1287   54.7656 H   0  0  0  0  0  0  0  0  0  0  0  0
   10.2462   46.4142   53.8832 H   0  0  0  0  0  0  0  0  0  0  0  0
   11.1102   49.0567   55.5222 H   0  0  0  0  0  0  0  0  0  0  0  0
   12.0653   47.8782   55.8683 H   0  0  0  0  0  0  0  0  0  0  0  0
   11.5913   49.1991   52.9679 H   0  0  0  0  0  0  0  0  0  0  0  0
   12.6305   48.0456   52.8675 H   0  0  0  0  0  0  0  0  0  0  0  0
    4.8515   44.1338   53.1491 H   0  0  0  0  0  0  0  0  0  0  0  0
    3.7044   42.7545   50.1990 H   0  0  0  0  0  0  0  0  0  0  0  0
    1.4376   41.7975   49.8961 H   0  0  0  0  0  0  0  0  0  0  0  0
   -0.4172   42.3145   51.5140 H   0  0  0  0  0  0  0  0  0  0  0  0
   -0.8190   43.8624   53.9416 H   0  0  0  0  0  0  0  0  0  0  0  0
    0.6362   45.3716   55.4417 H   0  0  0  0  0  0  0  0  0  0  0  0
  1  2  1  0
  2  3  1  0
  3  4  2  0
  4  5  1  0
  5  6  1  0
  6  7  1  0
  7  8  1  0
  4  9  1  0
  9 10  1  0
 10 11  1  0
 11 12  2  0
 11 13  1  0
 13 14  1  0
 14 15  2  0
 15 16  1  0
 16 17  2  0
 17 18  1  0
 18 19  1  0
 19 20  1  0
 20 21  2  0
 21 22  1  0
 10  2  2  0
 22 14  1  0
  8  6  1  0
 22 18  2  0
  1 23  1  0
  1 24  1  0
  1 25  1  0
  5 26  1  0
  5 27  1  0
  6 28  1  0
  7 29  1  0
  7 30  1  0
  8 31  1  0
  8 32  1  0
 13 33  1  0
 15 34  1  0
 16 35  1  0
 17 36  1  0
 19 37  1  0
 20 38  1  0
M  END
>  <meeko>  (245) 
{"is_sidechain": false}

>  <CID>  (245) 
Z1833516258

>  <pose_index>  (245) 
8

>  <docking_score>  (245) 
-7.462

>  <rmsd_to_best_selected>  (245) 
1.5696041150155235

>  <MWT>  (245) 
312.3979999999997

>  <TPSA>  (245) 
70.67

>  <logP>  (245) 
3.5326200000000005

>  <HBD>  (245) 
2

>  <HBA>  (245) 
4

>  <SMILES>  (245) 
[H]c1c([H])c([H])c2c(nc([H])n2[H])c1N([H])C(=O)c1sc(C([H])([H])C2([H])C([H])([H])C2([H])[H])nc1C([H])([H])[H]

$$$$
Z1833516258_pose10
     RDKit          3D

 38 41  0  0  0  0  0  0  0  0999 V2000
    6.8070   46.7964   50.1626 C   0  0  0  0  0  0  0  0  0  0  0  0
    7.1245   46.3731   51.5536 C   0  0  0  0  0  0  0  0  0  0  0  0
    8.1781   47.0195   52.1854 N   0  0  0  0  0  0  0  0  0  0  0  0
    8.3053   46.5883   53.4217 C   0  0  0  0  0  0  0  0  0  0  0  0
    9.3438   47.0833   54.3878 C   0  0  0  0  0  0  0  0  0  0  0  0
   10.6853   47.3771   53.7688 C   0  0  0  0  0  0  0  0  0  0  0  0
   11.9381   46.7638   54.3422 C   0  0  0  0  0  0  0  0  0  0  0  0
   11.6892   48.2393   54.4910 C   0  0  0  0  0  0  0  0  0  0  0  0
    7.1762   45.3896   53.8992 S   0  0  0  0  0  0  0  0  0  0  0  0
    6.4807   45.4160   52.3272 C   0  0  0  0  0  0  0  0  0  0  0  0
    5.3729   44.5214   52.0320 C   0  0  0  0  0  0  0  0  0  0  0  0
    5.5411   43.3813   51.6108 O   0  0  0  0  0  0  0  0  0  0  0  0
    4.1319   45.0874   52.2453 N   0  0  0  0  0  0  0  0  0  0  0  0
    2.8618   44.4934   52.1050 C   0  0  0  0  0  0  0  0  0  0  0  0
    1.8779   44.8789   51.1869 C   0  0  0  0  0  0  0  0  0  0  0  0
    0.6461   44.2119   51.1308 C   0  0  0  0  0  0  0  0  0  0  0  0
    0.3491   43.1388   51.9803 C   0  0  0  0  0  0  0  0  0  0  0  0
    1.3448   42.7689   52.8825 C   0  0  0  0  0  0  0  0  0  0  0  0
    1.4126   41.7890   53.8421 N   0  0  0  0  0  0  0  0  0  0  0  0
    2.6389   41.8678   54.4429 C   0  0  0  0  0  0  0  0  0  0  0  0
    3.3694   42.8355   53.9345 N   0  0  0  0  0  0  0  0  0  0  0  0
    2.5755   43.4096   52.9617 C   0  0  0  0  0  0  0  0  0  0  0  0
    7.4907   47.6032   49.8598 H   0  0  0  0  0  0  0  0  0  0  0  0
    6.9263   45.9401   49.4825 H   0  0  0  0  0  0  0  0  0  0  0  0
    5.7694   47.1588   50.1174 H   0  0  0  0  0  0  0  0  0  0  0  0
    8.9691   48.0083   54.8503 H   0  0  0  0  0  0  0  0  0  0  0  0
    9.5057   46.2732   55.1141 H   0  0  0  0  0  0  0  0  0  0  0  0
   10.2117   47.4003   52.7763 H   0  0  0  0  0  0  0  0  0  0  0  0
   11.8752   46.1044   55.2204 H   0  0  0  0  0  0  0  0  0  0  0  0
   12.7577   46.1504   53.9399 H   0  0  0  0  0  0  0  0  0  0  0  0
   11.4444   48.6587   55.4780 H   0  0  0  0  0  0  0  0  0  0  0  0
   12.2518   49.1513   54.2424 H   0  0  0  0  0  0  0  0  0  0  0  0
    4.0839   46.0743   52.4781 H   0  0  0  0  0  0  0  0  0  0  0  0
    2.0738   45.7161   50.5008 H   0  0  0  0  0  0  0  0  0  0  0  0
   -0.1074   44.5401   50.3997 H   0  0  0  0  0  0  0  0  0  0  0  0
   -0.6178   42.6162   51.9377 H   0  0  0  0  0  0  0  0  0  0  0  0
    0.6854   41.1262   54.0652 H   0  0  0  0  0  0  0  0  0  0  0  0
    2.9731   41.2026   55.2527 H   0  0  0  0  0  0  0  0  0  0  0  0
  1  2  1  0
  2  3  1  0
  3  4  2  0
  4  5  1  0
  5  6  1  0
  6  7  1  0
  7  8  1  0
  4  9  1  0
  9 10  1  0
 10 11  1  0
 11 12  2  0
 11 13  1  0
 13 14  1  0
 14 15  2  0
 15 16  1  0
 16 17  2  0
 17 18  1  0
 18 19  1  0
 19 20  1  0
 20 21  2  0
 21 22  1  0
 10  2  2  0
 22 14  1  0
  8  6  1  0
 22 18  2  0
  1 23  1  0
  1 24  1  0
  1 25  1  0
  5 26  1  0
  5 27  1  0
  6 28  1  0
  7 29  1  0
  7 30  1  0
  8 31  1  0
  8 32  1  0
 13 33  1  0
 15 34  1  0
 16 35  1  0
 17 36  1  0
 19 37  1  0
 20 38  1  0
M  END
>  <meeko>  (246) 
{"is_sidechain": false}

>  <CID>  (246) 
Z1833516258

>  <pose_index>  (246) 
10

>  <docking_score>  (246) 
-7.295

>  <rmsd_to_best_selected>  (246) 
1.6157679481171123

>  <MWT>  (246) 
312.3979999999997

>  <TPSA>  (246) 
70.67

>  <logP>  (246) 
3.5326200000000005

>  <HBD>  (246) 
2

>  <HBA>  (246) 
4

>  <SMILES>  (246) 
[H]c1c([H])c([H])c2c(nc([H])n2[H])c1N([H])C(=O)c1sc(C([H])([H])C2([H])C([H])([H])C2([H])[H])nc1C([H])([H])[H]

$$$$
Z1883550081_pose2
     RDKit          3D

 39 42  0  0  0  0  0  0  0  0999 V2000
   10.3580   45.9533   53.1390 C   0  0  0  0  0  0  0  0  0  0  0  0
    8.9317   46.3431   53.3819 C   0  0  0  0  0  0  0  0  0  0  0  0
    7.9845   45.5129   52.8855 N   0  0  0  0  0  0  0  0  0  0  0  0
    6.6737   45.7860   53.1065 C   0  0  0  0  0  0  0  0  0  0  0  0
    5.7436   44.8956   52.5494 N   0  0  0  0  0  0  0  0  0  0  0  0
    5.6782   44.4230   51.2233 C   0  0  0  0  0  0  0  0  0  0  0  0
    6.7684   44.4188   50.3527 C   0  0  0  0  0  0  0  0  0  0  0  0
    6.6366   43.9653   49.0307 C   0  0  0  0  0  0  0  0  0  0  0  0
    5.4116   43.5136   48.5359 C   0  0  0  0  0  0  0  0  0  0  0  0
    5.2151   43.0548   47.2312 N   0  0  0  0  0  0  0  0  0  0  0  0
    5.4106   41.8331   46.5928 C   0  0  0  0  0  0  0  0  0  0  0  0
    6.3032   41.6769   45.6035 N   0  0  0  0  0  0  0  0  0  0  0  0
    6.4117   40.4549   45.0518 C   0  0  0  0  0  0  0  0  0  0  0  0
    5.6637   39.3755   45.4461 C   0  0  0  0  0  0  0  0  0  0  0  0
    4.7771   39.6258   46.4624 C   0  0  0  0  0  0  0  0  0  0  0  0
    4.6338   40.8320   47.0438 N   0  0  0  0  0  0  0  0  0  0  0  0
    4.3143   43.5427   49.4096 C   0  0  0  0  0  0  0  0  0  0  0  0
    4.4425   43.9962   50.7282 C   0  0  0  0  0  0  0  0  0  0  0  0
    6.3527   46.9547   53.8152 C   0  0  0  0  0  0  0  0  0  0  0  0
    5.1697   47.6450   54.2109 C   0  0  0  0  0  0  0  0  0  0  0  0
    5.5503   48.7737   54.9068 C   0  0  0  0  0  0  0  0  0  0  0  0
    6.9212   48.7987   54.9384 N   0  0  0  0  0  0  0  0  0  0  0  0
    7.4191   47.7131   54.2711 C   0  0  0  0  0  0  0  0  0  0  0  0
    8.7238   47.4592   54.1045 N   0  0  0  0  0  0  0  0  0  0  0  0
   11.0030   46.8380   53.2447 H   0  0  0  0  0  0  0  0  0  0  0  0
   10.6594   45.1902   53.8717 H   0  0  0  0  0  0  0  0  0  0  0  0
   10.4586   45.5455   52.1224 H   0  0  0  0  0  0  0  0  0  0  0  0
    4.8273   45.2028   52.8652 H   0  0  0  0  0  0  0  0  0  0  0  0
    7.7462   44.7763   50.7076 H   0  0  0  0  0  0  0  0  0  0  0  0
    7.5168   43.9658   48.3709 H   0  0  0  0  0  0  0  0  0  0  0  0
    4.8216   43.7044   46.5681 H   0  0  0  0  0  0  0  0  0  0  0  0
    7.1403   40.3138   44.2399 H   0  0  0  0  0  0  0  0  0  0  0  0
    5.7668   38.3834   44.9824 H   0  0  0  0  0  0  0  0  0  0  0  0
    4.1496   38.7968   46.8217 H   0  0  0  0  0  0  0  0  0  0  0  0
    3.3319   43.2017   49.0510 H   0  0  0  0  0  0  0  0  0  0  0  0
    3.5591   44.0170   51.3832 H   0  0  0  0  0  0  0  0  0  0  0  0
    4.1364   47.3329   53.9988 H   0  0  0  0  0  0  0  0  0  0  0  0
    4.8764   49.5186   55.3551 H   0  0  0  0  0  0  0  0  0  0  0  0
    7.4988   49.5063   55.3676 H   0  0  0  0  0  0  0  0  0  0  0  0
  1  2  1  0
  2  3  2  0
  3  4  1  0
  4  5  1  0
  5  6  1  0
  6  7  2  0
  7  8  1  0
  8  9  2  0
  9 10  1  0
 10 11  1  0
 11 12  2  0
 12 13  1  0
 13 14  2  0
 14 15  1  0
 15 16  2  0
  9 17  1  0
 17 18  2  0
  4 19  2  0
 19 20  1  0
 20 21  2  0
 21 22  1  0
 22 23  1  0
 23 24  2  0
 24  2  1  0
 18  6  1  0
 23 19  1  0
 16 11  1  0
  1 25  1  0
  1 26  1  0
  1 27  1  0
  5 28  1  0
  7 29  1  0
  8 30  1  0
 10 31  1  0
 13 32  1  0
 14 33  1  0
 15 34  1  0
 17 35  1  0
 18 36  1  0
 20 37  1  0
 21 38  1  0
 22 39  1  0
M  END
>  <meeko>  (247) 
{"is_sidechain": false}

>  <CID>  (247) 
Z1883550081

>  <pose_index>  (247) 
2

>  <docking_score>  (247) 
-9.003

>  <rmsd_to_best_selected>  (247) 
0.0

>  <MWT>  (247) 
317.3559999999997

>  <TPSA>  (247) 
91.41000000000001

>  <logP>  (247) 
3.543520000000001

>  <HBD>  (247) 
3

>  <HBA>  (247) 
6

>  <SMILES>  (247) 
[H]c1nc(N([H])c2c([H])c([H])c(N([H])c3nc(C([H])([H])[H])nc4c3c([H])c([H])n4[H])c([H])c2[H])nc([H])c1[H]

$$$$
Z1883550081_pose3
     RDKit          3D

 39 42  0  0  0  0  0  0  0  0999 V2000
   10.4464   47.0867   52.9658 C   0  0  0  0  0  0  0  0  0  0  0  0
    8.9881   46.9712   53.2872 C   0  0  0  0  0  0  0  0  0  0  0  0
    8.3507   45.8711   52.8236 N   0  0  0  0  0  0  0  0  0  0  0  0
    7.0389   45.6849   53.1157 C   0  0  0  0  0  0  0  0  0  0  0  0
    6.4343   44.5341   52.5872 N   0  0  0  0  0  0  0  0  0  0  0  0
    6.1708   44.2314   51.2365 C   0  0  0  0  0  0  0  0  0  0  0  0
    5.3935   45.0386   50.4050 C   0  0  0  0  0  0  0  0  0  0  0  0
    5.1374   44.6706   49.0746 C   0  0  0  0  0  0  0  0  0  0  0  0
    5.6401   43.4834   48.5391 C   0  0  0  0  0  0  0  0  0  0  0  0
    5.4186   43.0601   47.2260 N   0  0  0  0  0  0  0  0  0  0  0  0
    5.3660   41.8165   46.6026 C   0  0  0  0  0  0  0  0  0  0  0  0
    6.4652   41.1947   46.1512 N   0  0  0  0  0  0  0  0  0  0  0  0
    6.3035   39.9956   45.5610 C   0  0  0  0  0  0  0  0  0  0  0  0
    5.0849   39.3877   45.4018 C   0  0  0  0  0  0  0  0  0  0  0  0
    4.0167   40.0941   45.8921 C   0  0  0  0  0  0  0  0  0  0  0  0
    4.1298   41.2961   46.4901 N   0  0  0  0  0  0  0  0  0  0  0  0
    6.4017   42.6660   49.3872 C   0  0  0  0  0  0  0  0  0  0  0  0
    6.6570   43.0303   50.7157 C   0  0  0  0  0  0  0  0  0  0  0  0
    6.3817   46.6751   53.8641 C   0  0  0  0  0  0  0  0  0  0  0  0
    5.0587   46.9244   54.3333 C   0  0  0  0  0  0  0  0  0  0  0  0
    5.0731   48.1127   55.0322 C   0  0  0  0  0  0  0  0  0  0  0  0
    6.3555   48.5989   54.9947 N   0  0  0  0  0  0  0  0  0  0  0  0
    7.1523   47.7474   54.2811 C   0  0  0  0  0  0  0  0  0  0  0  0
    8.4552   47.9498   54.0435 N   0  0  0  0  0  0  0  0  0  0  0  0
   11.0398   46.7858   53.8418 H   0  0  0  0  0  0  0  0  0  0  0  0
   10.6878   46.4308   52.1164 H   0  0  0  0  0  0  0  0  0  0  0  0
   10.6826   48.1285   52.7033 H   0  0  0  0  0  0  0  0  0  0  0  0
    5.6146   44.3504   53.1616 H   0  0  0  0  0  0  0  0  0  0  0  0
    4.9753   45.9772   50.7977 H   0  0  0  0  0  0  0  0  0  0  0  0
    4.5279   45.3316   48.4408 H   0  0  0  0  0  0  0  0  0  0  0  0
    5.2229   43.7715   46.5391 H   0  0  0  0  0  0  0  0  0  0  0  0
    7.1973   39.4754   45.1862 H   0  0  0  0  0  0  0  0  0  0  0  0
    4.9726   38.4067   44.9171 H   0  0  0  0  0  0  0  0  0  0  0  0
    3.0129   39.6556   45.7917 H   0  0  0  0  0  0  0  0  0  0  0  0
    6.8070   41.7191   49.0011 H   0  0  0  0  0  0  0  0  0  0  0  0
    7.2487   42.3610   51.3574 H   0  0  0  0  0  0  0  0  0  0  0  0
    4.1814   46.2820   54.1671 H   0  0  0  0  0  0  0  0  0  0  0  0
    4.2130   48.5850   55.5293 H   0  0  0  0  0  0  0  0  0  0  0  0
    6.6834   49.4593   55.4091 H   0  0  0  0  0  0  0  0  0  0  0  0
  1  2  1  0
  2  3  2  0
  3  4  1  0
  4  5  1  0
  5  6  1  0
  6  7  2  0
  7  8  1  0
  8  9  2  0
  9 10  1  0
 10 11  1  0
 11 12  2  0
 12 13  1  0
 13 14  2  0
 14 15  1  0
 15 16  2  0
  9 17  1  0
 17 18  2  0
  4 19  2  0
 19 20  1  0
 20 21  2  0
 21 22  1  0
 22 23  1  0
 23 24  2  0
 24  2  1  0
 18  6  1  0
 23 19  1  0
 16 11  1  0
  1 25  1  0
  1 26  1  0
  1 27  1  0
  5 28  1  0
  7 29  1  0
  8 30  1  0
 10 31  1  0
 13 32  1  0
 14 33  1  0
 15 34  1  0
 17 35  1  0
 18 36  1  0
 20 37  1  0
 21 38  1  0
 22 39  1  0
M  END
>  <meeko>  (248) 
{"is_sidechain": false}

>  <CID>  (248) 
Z1883550081

>  <pose_index>  (248) 
3

>  <docking_score>  (248) 
-8.53

>  <rmsd_to_best_selected>  (248) 
1.2111340130413752

>  <MWT>  (248) 
317.3559999999997

>  <TPSA>  (248) 
91.41000000000001

>  <logP>  (248) 
3.543520000000001

>  <HBD>  (248) 
3

>  <HBA>  (248) 
6

>  <SMILES>  (248) 
[H]c1nc(N([H])c2c([H])c([H])c(N([H])c3nc(C([H])([H])[H])nc4c3c([H])c([H])n4[H])c([H])c2[H])nc([H])c1[H]

$$$$
Z1883550081_pose5
     RDKit          3D

 39 42  0  0  0  0  0  0  0  0999 V2000
   10.4767   47.0238   54.3246 C   0  0  0  0  0  0  0  0  0  0  0  0
    9.0418   47.0467   53.8959 C   0  0  0  0  0  0  0  0  0  0  0  0
    8.7876   46.7083   52.6096 N   0  0  0  0  0  0  0  0  0  0  0  0
    7.5051   46.6685   52.1701 C   0  0  0  0  0  0  0  0  0  0  0  0
    7.3136   46.3292   50.8211 N   0  0  0  0  0  0  0  0  0  0  0  0
    6.7545   45.1484   50.2914 C   0  0  0  0  0  0  0  0  0  0  0  0
    5.3810   44.9158   50.2128 C   0  0  0  0  0  0  0  0  0  0  0  0
    4.8812   43.7062   49.7042 C   0  0  0  0  0  0  0  0  0  0  0  0
    5.7350   42.6920   49.2703 C   0  0  0  0  0  0  0  0  0  0  0  0
    5.2999   41.4674   48.7585 N   0  0  0  0  0  0  0  0  0  0  0  0
    4.9499   41.0139   47.4896 C   0  0  0  0  0  0  0  0  0  0  0  0
    3.7006   41.1141   47.0137 N   0  0  0  0  0  0  0  0  0  0  0  0
    3.4675   40.6431   45.7739 C   0  0  0  0  0  0  0  0  0  0  0  0
    4.4347   40.0743   44.9860 C   0  0  0  0  0  0  0  0  0  0  0  0
    5.6815   40.0135   45.5516 C   0  0  0  0  0  0  0  0  0  0  0  0
    5.9607   40.4716   46.7874 N   0  0  0  0  0  0  0  0  0  0  0  0
    7.1146   42.9244   49.3730 C   0  0  0  0  0  0  0  0  0  0  0  0
    7.6165   44.1290   49.8818 C   0  0  0  0  0  0  0  0  0  0  0  0
    6.4872   47.0214   53.0687 C   0  0  0  0  0  0  0  0  0  0  0  0
    5.0696   47.1762   53.0347 C   0  0  0  0  0  0  0  0  0  0  0  0
    4.6539   47.5574   54.2931 C   0  0  0  0  0  0  0  0  0  0  0  0
    5.7679   47.6505   55.0866 N   0  0  0  0  0  0  0  0  0  0  0  0
    6.8836   47.3418   54.3559 C   0  0  0  0  0  0  0  0  0  0  0  0
    8.1334   47.3593   54.8391 N   0  0  0  0  0  0  0  0  0  0  0  0
   10.6728   46.1071   54.9001 H   0  0  0  0  0  0  0  0  0  0  0  0
   11.1252   47.0449   53.4363 H   0  0  0  0  0  0  0  0  0  0  0  0
   10.6859   47.9026   54.9523 H   0  0  0  0  0  0  0  0  0  0  0  0
    8.1798   46.5618   50.3412 H   0  0  0  0  0  0  0  0  0  0  0  0
    4.6795   45.6913   50.5542 H   0  0  0  0  0  0  0  0  0  0  0  0
    3.7932   43.5551   49.6467 H   0  0  0  0  0  0  0  0  0  0  0  0
    5.2308   40.6962   49.4049 H   0  0  0  0  0  0  0  0  0  0  0  0
    2.4464   40.7187   45.3717 H   0  0  0  0  0  0  0  0  0  0  0  0
    4.2254   39.6950   43.9749 H   0  0  0  0  0  0  0  0  0  0  0  0
    6.4979   39.5667   44.9652 H   0  0  0  0  0  0  0  0  0  0  0  0
    7.8175   42.1436   49.0469 H   0  0  0  0  0  0  0  0  0  0  0  0
    8.7042   44.2740   49.9598 H   0  0  0  0  0  0  0  0  0  0  0  0
    4.4223   47.0193   52.1593 H   0  0  0  0  0  0  0  0  0  0  0  0
    3.6167   47.7515   54.6038 H   0  0  0  0  0  0  0  0  0  0  0  0
    5.7917   47.9171   56.0600 H   0  0  0  0  0  0  0  0  0  0  0  0
  1  2  1  0
  2  3  2  0
  3  4  1  0
  4  5  1  0
  5  6  1  0
  6  7  2  0
  7  8  1  0
  8  9  2  0
  9 10  1  0
 10 11  1  0
 11 12  2  0
 12 13  1  0
 13 14  2  0
 14 15  1  0
 15 16  2  0
  9 17  1  0
 17 18  2  0
  4 19  2  0
 19 20  1  0
 20 21  2  0
 21 22  1  0
 22 23  1  0
 23 24  2  0
 24  2  1  0
 18  6  1  0
 23 19  1  0
 16 11  1  0
  1 25  1  0
  1 26  1  0
  1 27  1  0
  5 28  1  0
  7 29  1  0
  8 30  1  0
 10 31  1  0
 13 32  1  0
 14 33  1  0
 15 34  1  0
 17 35  1  0
 18 36  1  0
 20 37  1  0
 21 38  1  0
 22 39  1  0
M  END
>  <meeko>  (249) 
{"is_sidechain": false}

>  <CID>  (249) 
Z1883550081

>  <pose_index>  (249) 
5

>  <docking_score>  (249) 
-8.486

>  <rmsd_to_best_selected>  (249) 
1.8636984583076914

>  <MWT>  (249) 
317.3559999999997

>  <TPSA>  (249) 
91.41000000000001

>  <logP>  (249) 
3.543520000000001

>  <HBD>  (249) 
3

>  <HBA>  (249) 
6

>  <SMILES>  (249) 
[H]c1nc(N([H])c2c([H])c([H])c(N([H])c3nc(C([H])([H])[H])nc4c3c([H])c([H])n4[H])c([H])c2[H])nc([H])c1[H]

$$$$
Z1883550081_pose6
     RDKit          3D

 39 42  0  0  0  0  0  0  0  0999 V2000
   10.6910   47.4882   53.8342 C   0  0  0  0  0  0  0  0  0  0  0  0
    9.2374   47.1655   53.6679 C   0  0  0  0  0  0  0  0  0  0  0  0
    8.9417   45.9396   53.1774 N   0  0  0  0  0  0  0  0  0  0  0  0
    7.6431   45.5692   53.0418 C   0  0  0  0  0  0  0  0  0  0  0  0
    7.4069   44.2920   52.5093 N   0  0  0  0  0  0  0  0  0  0  0  0
    6.7584   43.9590   51.3033 C   0  0  0  0  0  0  0  0  0  0  0  0
    7.2653   44.2771   50.0429 C   0  0  0  0  0  0  0  0  0  0  0  0
    6.5576   43.9482   48.8755 C   0  0  0  0  0  0  0  0  0  0  0  0
    5.3219   43.3026   48.9317 C   0  0  0  0  0  0  0  0  0  0  0  0
    4.5696   42.9521   47.8083 N   0  0  0  0  0  0  0  0  0  0  0  0
    4.6444   41.9240   46.8715 C   0  0  0  0  0  0  0  0  0  0  0  0
    3.7532   41.7958   45.8768 N   0  0  0  0  0  0  0  0  0  0  0  0
    3.9150   40.7653   45.0262 C   0  0  0  0  0  0  0  0  0  0  0  0
    4.9339   39.8528   45.1274 C   0  0  0  0  0  0  0  0  0  0  0  0
    5.7968   40.0601   46.1720 C   0  0  0  0  0  0  0  0  0  0  0  0
    5.6738   41.0769   47.0474 N   0  0  0  0  0  0  0  0  0  0  0  0
    4.8081   43.0053   50.2021 C   0  0  0  0  0  0  0  0  0  0  0  0
    5.5100   43.3346   51.3687 C   0  0  0  0  0  0  0  0  0  0  0  0
    6.6516   46.5001   53.3845 C   0  0  0  0  0  0  0  0  0  0  0  0
    5.2270   46.5714   53.3504 C   0  0  0  0  0  0  0  0  0  0  0  0
    4.8518   47.8036   53.8423 C   0  0  0  0  0  0  0  0  0  0  0  0
    5.9964   48.4879   54.1630 N   0  0  0  0  0  0  0  0  0  0  0  0
    7.0912   47.7170   53.8792 C   0  0  0  0  0  0  0  0  0  0  0  0
    8.3595   48.1077   54.0603 N   0  0  0  0  0  0  0  0  0  0  0  0
   11.2428   47.1664   52.9388 H   0  0  0  0  0  0  0  0  0  0  0  0
   10.8126   48.5730   53.9698 H   0  0  0  0  0  0  0  0  0  0  0  0
   11.0847   46.9620   54.7164 H   0  0  0  0  0  0  0  0  0  0  0  0
    7.0547   43.7220   53.2744 H   0  0  0  0  0  0  0  0  0  0  0  0
    8.2334   44.7932   49.9625 H   0  0  0  0  0  0  0  0  0  0  0  0
    6.9866   44.2051   47.8957 H   0  0  0  0  0  0  0  0  0  0  0  0
    3.7655   43.5216   47.5950 H   0  0  0  0  0  0  0  0  0  0  0  0
    3.1913   40.6488   44.2060 H   0  0  0  0  0  0  0  0  0  0  0  0
    5.0501   39.0165   44.4223 H   0  0  0  0  0  0  0  0  0  0  0  0
    6.6342   39.3589   46.3027 H   0  0  0  0  0  0  0  0  0  0  0  0
    3.8331   42.5027   50.2842 H   0  0  0  0  0  0  0  0  0  0  0  0
    5.0724   43.0985   52.3499 H   0  0  0  0  0  0  0  0  0  0  0  0
    4.5480   45.7826   52.9944 H   0  0  0  0  0  0  0  0  0  0  0  0
    3.8213   48.1711   53.9569 H   0  0  0  0  0  0  0  0  0  0  0  0
    6.0508   49.4232   54.5387 H   0  0  0  0  0  0  0  0  0  0  0  0
  1  2  1  0
  2  3  2  0
  3  4  1  0
  4  5  1  0
  5  6  1  0
  6  7  2  0
  7  8  1  0
  8  9  2  0
  9 10  1  0
 10 11  1  0
 11 12  2  0
 12 13  1  0
 13 14  2  0
 14 15  1  0
 15 16  2  0
  9 17  1  0
 17 18  2  0
  4 19  2  0
 19 20  1  0
 20 21  2  0
 21 22  1  0
 22 23  1  0
 23 24  2  0
 24  2  1  0
 18  6  1  0
 23 19  1  0
 16 11  1  0
  1 25  1  0
  1 26  1  0
  1 27  1  0
  5 28  1  0
  7 29  1  0
  8 30  1  0
 10 31  1  0
 13 32  1  0
 14 33  1  0
 15 34  1  0
 17 35  1  0
 18 36  1  0
 20 37  1  0
 21 38  1  0
 22 39  1  0
M  END
>  <meeko>  (250) 
{"is_sidechain": false}

>  <CID>  (250) 
Z1883550081

>  <pose_index>  (250) 
6

>  <docking_score>  (250) 
-8.456

>  <rmsd_to_best_selected>  (250) 
1.385168738812515

>  <MWT>  (250) 
317.3559999999997

>  <TPSA>  (250) 
91.41000000000001

>  <logP>  (250) 
3.543520000000001

>  <HBD>  (250) 
3

>  <HBA>  (250) 
6

>  <SMILES>  (250) 
[H]c1nc(N([H])c2c([H])c([H])c(N([H])c3nc(C([H])([H])[H])nc4c3c([H])c([H])n4[H])c([H])c2[H])nc([H])c1[H]

$$$$
Z1883550081_pose7
     RDKit          3D

 39 42  0  0  0  0  0  0  0  0999 V2000
   10.3391   47.2872   55.1832 C   0  0  0  0  0  0  0  0  0  0  0  0
    9.1093   47.0782   54.3530 C   0  0  0  0  0  0  0  0  0  0  0  0
    9.0824   45.9674   53.5803 N   0  0  0  0  0  0  0  0  0  0  0  0
    7.9797   45.6969   52.8363 C   0  0  0  0  0  0  0  0  0  0  0  0
    8.0249   44.5403   52.0439 N   0  0  0  0  0  0  0  0  0  0  0  0
    7.0806   44.0972   51.0960 C   0  0  0  0  0  0  0  0  0  0  0  0
    6.0441   43.2122   51.3977 C   0  0  0  0  0  0  0  0  0  0  0  0
    5.1512   42.7805   50.4045 C   0  0  0  0  0  0  0  0  0  0  0  0
    5.2727   43.2077   49.0811 C   0  0  0  0  0  0  0  0  0  0  0  0
    4.4197   42.8124   48.0491 N   0  0  0  0  0  0  0  0  0  0  0  0
    4.4976   41.8592   47.0365 C   0  0  0  0  0  0  0  0  0  0  0  0
    5.4376   41.9054   46.0807 N   0  0  0  0  0  0  0  0  0  0  0  0
    5.4215   40.9351   45.1473 C   0  0  0  0  0  0  0  0  0  0  0  0
    4.5035   39.9168   45.1273 C   0  0  0  0  0  0  0  0  0  0  0  0
    3.5810   39.9491   46.1407 C   0  0  0  0  0  0  0  0  0  0  0  0
    3.5570   40.8993   47.0961 N   0  0  0  0  0  0  0  0  0  0  0  0
    6.3304   44.0788   48.7810 C   0  0  0  0  0  0  0  0  0  0  0  0
    7.2240   44.5111   49.7698 C   0  0  0  0  0  0  0  0  0  0  0  0
    6.9188   46.6148   52.8713 C   0  0  0  0  0  0  0  0  0  0  0  0
    5.6499   46.7690   52.2385 C   0  0  0  0  0  0  0  0  0  0  0  0
    5.0725   47.9246   52.7232 C   0  0  0  0  0  0  0  0  0  0  0  0
    5.9489   48.4812   53.6192 N   0  0  0  0  0  0  0  0  0  0  0  0
    7.0735   47.7067   53.7085 C   0  0  0  0  0  0  0  0  0  0  0  0
    8.1284   47.9909   54.4831 N   0  0  0  0  0  0  0  0  0  0  0  0
   11.1975   46.8023   54.6954 H   0  0  0  0  0  0  0  0  0  0  0  0
   10.5350   48.3650   55.2834 H   0  0  0  0  0  0  0  0  0  0  0  0
   10.1875   46.8478   56.1802 H   0  0  0  0  0  0  0  0  0  0  0  0
    8.2963   43.7790   52.6620 H   0  0  0  0  0  0  0  0  0  0  0  0
    5.9254   42.8478   52.4288 H   0  0  0  0  0  0  0  0  0  0  0  0
    4.3382   42.0906   50.6748 H   0  0  0  0  0  0  0  0  0  0  0  0
    3.5224   43.2689   47.9915 H   0  0  0  0  0  0  0  0  0  0  0  0
    6.1867   40.9606   44.3576 H   0  0  0  0  0  0  0  0  0  0  0  0
    4.5071   39.1328   44.3557 H   0  0  0  0  0  0  0  0  0  0  0  0
    2.8191   39.1565   46.1760 H   0  0  0  0  0  0  0  0  0  0  0  0
    6.4612   44.4301   47.7469 H   0  0  0  0  0  0  0  0  0  0  0  0
    8.0494   45.1855   49.4979 H   0  0  0  0  0  0  0  0  0  0  0  0
    5.2097   46.0874   51.4957 H   0  0  0  0  0  0  0  0  0  0  0  0
    4.0879   48.3265   52.4419 H   0  0  0  0  0  0  0  0  0  0  0  0
    5.8154   49.3386   54.1352 H   0  0  0  0  0  0  0  0  0  0  0  0
  1  2  1  0
  2  3  2  0
  3  4  1  0
  4  5  1  0
  5  6  1  0
  6  7  2  0
  7  8  1  0
  8  9  2  0
  9 10  1  0
 10 11  1  0
 11 12  2  0
 12 13  1  0
 13 14  2  0
 14 15  1  0
 15 16  2  0
  9 17  1  0
 17 18  2  0
  4 19  2  0
 19 20  1  0
 20 21  2  0
 21 22  1  0
 22 23  1  0
 23 24  2  0
 24  2  1  0
 18  6  1  0
 23 19  1  0
 16 11  1  0
  1 25  1  0
  1 26  1  0
  1 27  1  0
  5 28  1  0
  7 29  1  0
  8 30  1  0
 10 31  1  0
 13 32  1  0
 14 33  1  0
 15 34  1  0
 17 35  1  0
 18 36  1  0
 20 37  1  0
 21 38  1  0
 22 39  1  0
M  END
>  <meeko>  (251) 
{"is_sidechain": false}

>  <CID>  (251) 
Z1883550081

>  <pose_index>  (251) 
7

>  <docking_score>  (251) 
-8.451

>  <rmsd_to_best_selected>  (251) 
1.8613362110971368

>  <MWT>  (251) 
317.3559999999997

>  <TPSA>  (251) 
91.41000000000001

>  <logP>  (251) 
3.543520000000001

>  <HBD>  (251) 
3

>  <HBA>  (251) 
6

>  <SMILES>  (251) 
[H]c1nc(N([H])c2c([H])c([H])c(N([H])c3nc(C([H])([H])[H])nc4c3c([H])c([H])n4[H])c([H])c2[H])nc([H])c1[H]

$$$$
Z1883550081_pose8
     RDKit          3D

 39 42  0  0  0  0  0  0  0  0999 V2000
   10.1106   45.5279   54.0151 C   0  0  0  0  0  0  0  0  0  0  0  0
    8.8493   46.2787   53.7162 C   0  0  0  0  0  0  0  0  0  0  0  0
    8.2892   46.0638   52.5030 N   0  0  0  0  0  0  0  0  0  0  0  0
    7.1235   46.6808   52.1863 C   0  0  0  0  0  0  0  0  0  0  0  0
    6.6076   46.4285   50.9058 N   0  0  0  0  0  0  0  0  0  0  0  0
    6.0894   45.2202   50.3981 C   0  0  0  0  0  0  0  0  0  0  0  0
    5.5208   44.2298   51.2003 C   0  0  0  0  0  0  0  0  0  0  0  0
    5.0486   43.0311   50.6421 C   0  0  0  0  0  0  0  0  0  0  0  0
    5.1401   42.7807   49.2727 C   0  0  0  0  0  0  0  0  0  0  0  0
    4.6933   41.6085   48.6578 N   0  0  0  0  0  0  0  0  0  0  0  0
    5.0361   40.9322   47.4910 C   0  0  0  0  0  0  0  0  0  0  0  0
    6.0124   40.0139   47.4563 N   0  0  0  0  0  0  0  0  0  0  0  0
    6.2658   39.4197   46.2749 C   0  0  0  0  0  0  0  0  0  0  0  0
    5.5819   39.7058   45.1211 C   0  0  0  0  0  0  0  0  0  0  0  0
    4.6029   40.6565   45.2491 C   0  0  0  0  0  0  0  0  0  0  0  0
    4.3141   41.2767   46.4088 N   0  0  0  0  0  0  0  0  0  0  0  0
    5.7332   43.7719   48.4756 C   0  0  0  0  0  0  0  0  0  0  0  0
    6.2064   44.9679   49.0296 C   0  0  0  0  0  0  0  0  0  0  0  0
    6.5622   47.5570   53.1276 C   0  0  0  0  0  0  0  0  0  0  0  0
    5.4368   48.4298   53.2033 C   0  0  0  0  0  0  0  0  0  0  0  0
    5.4487   49.0311   54.4440 C   0  0  0  0  0  0  0  0  0  0  0  0
    6.5460   48.5632   55.1203 N   0  0  0  0  0  0  0  0  0  0  0  0
    7.2351   47.6821   54.3327 C   0  0  0  0  0  0  0  0  0  0  0  0
    8.3663   47.0657   54.6969 N   0  0  0  0  0  0  0  0  0  0  0  0
   10.9775   46.1272   53.7000 H   0  0  0  0  0  0  0  0  0  0  0  0
   10.1735   45.3322   55.0958 H   0  0  0  0  0  0  0  0  0  0  0  0
   10.1071   44.5729   53.4692 H   0  0  0  0  0  0  0  0  0  0  0  0
    7.2616   46.8424   50.2456 H   0  0  0  0  0  0  0  0  0  0  0  0
    5.4414   44.3906   52.2856 H   0  0  0  0  0  0  0  0  0  0  0  0
    4.5967   42.2730   51.2987 H   0  0  0  0  0  0  0  0  0  0  0  0
    3.9804   41.0807   49.1373 H   0  0  0  0  0  0  0  0  0  0  0  0
    7.0641   38.6641   46.2330 H   0  0  0  0  0  0  0  0  0  0  0  0
    5.8026   39.2095   44.1646 H   0  0  0  0  0  0  0  0  0  0  0  0
    4.0215   40.9277   44.3555 H   0  0  0  0  0  0  0  0  0  0  0  0
    5.8284   43.6058   47.3924 H   0  0  0  0  0  0  0  0  0  0  0  0
    6.6768   45.7189   48.3779 H   0  0  0  0  0  0  0  0  0  0  0  0
    4.6909   48.5941   52.4117 H   0  0  0  0  0  0  0  0  0  0  0  0
    4.7118   49.7548   54.8225 H   0  0  0  0  0  0  0  0  0  0  0  0
    6.8325   48.8242   56.0531 H   0  0  0  0  0  0  0  0  0  0  0  0
  1  2  1  0
  2  3  2  0
  3  4  1  0
  4  5  1  0
  5  6  1  0
  6  7  2  0
  7  8  1  0
  8  9  2  0
  9 10  1  0
 10 11  1  0
 11 12  2  0
 12 13  1  0
 13 14  2  0
 14 15  1  0
 15 16  2  0
  9 17  1  0
 17 18  2  0
  4 19  2  0
 19 20  1  0
 20 21  2  0
 21 22  1  0
 22 23  1  0
 23 24  2  0
 24  2  1  0
 18  6  1  0
 23 19  1  0
 16 11  1  0
  1 25  1  0
  1 26  1  0
  1 27  1  0
  5 28  1  0
  7 29  1  0
  8 30  1  0
 10 31  1  0
 13 32  1  0
 14 33  1  0
 15 34  1  0
 17 35  1  0
 18 36  1  0
 20 37  1  0
 21 38  1  0
 22 39  1  0
M  END
>  <meeko>  (252) 
{"is_sidechain": false}

>  <CID>  (252) 
Z1883550081

>  <pose_index>  (252) 
8

>  <docking_score>  (252) 
-8.377

>  <rmsd_to_best_selected>  (252) 
1.7384133406119224

>  <MWT>  (252) 
317.3559999999997

>  <TPSA>  (252) 
91.41000000000001

>  <logP>  (252) 
3.543520000000001

>  <HBD>  (252) 
3

>  <HBA>  (252) 
6

>  <SMILES>  (252) 
[H]c1nc(N([H])c2c([H])c([H])c(N([H])c3nc(C([H])([H])[H])nc4c3c([H])c([H])n4[H])c([H])c2[H])nc([H])c1[H]

$$$$
Z1883550081_pose9
     RDKit          3D

 39 42  0  0  0  0  0  0  0  0999 V2000
    9.8729   45.4070   54.0424 C   0  0  0  0  0  0  0  0  0  0  0  0
    8.6679   46.2505   53.7590 C   0  0  0  0  0  0  0  0  0  0  0  0
    7.9881   45.9739   52.6220 N   0  0  0  0  0  0  0  0  0  0  0  0
    6.8636   46.6735   52.3275 C   0  0  0  0  0  0  0  0  0  0  0  0
    6.2185   46.3484   51.1246 N   0  0  0  0  0  0  0  0  0  0  0  0
    6.0946   45.0820   50.5172 C   0  0  0  0  0  0  0  0  0  0  0  0
    7.0506   44.5465   49.6531 C   0  0  0  0  0  0  0  0  0  0  0  0
    6.8578   43.2924   49.0524 C   0  0  0  0  0  0  0  0  0  0  0  0
    5.7043   42.5427   49.2862 C   0  0  0  0  0  0  0  0  0  0  0  0
    5.4527   41.2924   48.7163 N   0  0  0  0  0  0  0  0  0  0  0  0
    5.3602   40.8218   47.4085 C   0  0  0  0  0  0  0  0  0  0  0  0
    6.4110   40.8134   46.5755 N   0  0  0  0  0  0  0  0  0  0  0  0
    6.2127   40.3390   45.3313 C   0  0  0  0  0  0  0  0  0  0  0  0
    5.0047   39.8707   44.8825 C   0  0  0  0  0  0  0  0  0  0  0  0
    3.9879   39.9155   45.8011 C   0  0  0  0  0  0  0  0  0  0  0  0
    4.1389   40.3819   47.0559 N   0  0  0  0  0  0  0  0  0  0  0  0
    4.7378   43.0977   50.1381 C   0  0  0  0  0  0  0  0  0  0  0  0
    4.9254   44.3495   50.7379 C   0  0  0  0  0  0  0  0  0  0  0  0
    6.4710   47.6944   53.2079 C   0  0  0  0  0  0  0  0  0  0  0  0
    5.4449   48.6825   53.2708 C   0  0  0  0  0  0  0  0  0  0  0  0
    5.6204   49.4016   54.4344 C   0  0  0  0  0  0  0  0  0  0  0  0
    6.7215   48.8931   55.0748 N   0  0  0  0  0  0  0  0  0  0  0  0
    7.2528   47.8693   54.3379 C   0  0  0  0  0  0  0  0  0  0  0  0
    8.3477   47.1783   54.6812 N   0  0  0  0  0  0  0  0  0  0  0  0
    9.5942   44.3437   54.0008 H   0  0  0  0  0  0  0  0  0  0  0  0
   10.6493   45.6123   53.2907 H   0  0  0  0  0  0  0  0  0  0  0  0
   10.2602   45.6456   55.0440 H   0  0  0  0  0  0  0  0  0  0  0  0
    6.5139   47.0444   50.4440 H   0  0  0  0  0  0  0  0  0  0  0  0
    7.9679   45.1148   49.4396 H   0  0  0  0  0  0  0  0  0  0  0  0
    7.6330   42.8918   48.3827 H   0  0  0  0  0  0  0  0  0  0  0  0
    5.3276   40.5157   49.3470 H   0  0  0  0  0  0  0  0  0  0  0  0
    7.0659   40.3264   44.6372 H   0  0  0  0  0  0  0  0  0  0  0  0
    4.8620   39.4875   43.8613 H   0  0  0  0  0  0  0  0  0  0  0  0
    2.9955   39.5509   45.4973 H   0  0  0  0  0  0  0  0  0  0  0  0
    3.8126   42.5378   50.3394 H   0  0  0  0  0  0  0  0  0  0  0  0
    4.1421   44.7613   51.3912 H   0  0  0  0  0  0  0  0  0  0  0  0
    4.6536   48.8427   52.5237 H   0  0  0  0  0  0  0  0  0  0  0  0
    4.9911   50.2327   54.7855 H   0  0  0  0  0  0  0  0  0  0  0  0
    7.1103   49.2158   55.9485 H   0  0  0  0  0  0  0  0  0  0  0  0
  1  2  1  0
  2  3  2  0
  3  4  1  0
  4  5  1  0
  5  6  1  0
  6  7  2  0
  7  8  1  0
  8  9  2  0
  9 10  1  0
 10 11  1  0
 11 12  2  0
 12 13  1  0
 13 14  2  0
 14 15  1  0
 15 16  2  0
  9 17  1  0
 17 18  2  0
  4 19  2  0
 19 20  1  0
 20 21  2  0
 21 22  1  0
 22 23  1  0
 23 24  2  0
 24  2  1  0
 18  6  1  0
 23 19  1  0
 16 11  1  0
  1 25  1  0
  1 26  1  0
  1 27  1  0
  5 28  1  0
  7 29  1  0
  8 30  1  0
 10 31  1  0
 13 32  1  0
 14 33  1  0
 15 34  1  0
 17 35  1  0
 18 36  1  0
 20 37  1  0
 21 38  1  0
 22 39  1  0
M  END
>  <meeko>  (253) 
{"is_sidechain": false}

>  <CID>  (253) 
Z1883550081

>  <pose_index>  (253) 
9

>  <docking_score>  (253) 
-8.328

>  <rmsd_to_best_selected>  (253) 
1.3610520848738883

>  <MWT>  (253) 
317.3559999999997

>  <TPSA>  (253) 
91.41000000000001

>  <logP>  (253) 
3.543520000000001

>  <HBD>  (253) 
3

>  <HBA>  (253) 
6

>  <SMILES>  (253) 
[H]c1nc(N([H])c2c([H])c([H])c(N([H])c3nc(C([H])([H])[H])nc4c3c([H])c([H])n4[H])c([H])c2[H])nc([H])c1[H]

$$$$
Z1883550081_pose10
     RDKit          3D

 39 42  0  0  0  0  0  0  0  0999 V2000
    9.9123   45.3348   54.3725 C   0  0  0  0  0  0  0  0  0  0  0  0
    8.6729   46.0880   53.9973 C   0  0  0  0  0  0  0  0  0  0  0  0
    7.6967   45.3788   53.3832 N   0  0  0  0  0  0  0  0  0  0  0  0
    6.5315   45.9919   53.0546 C   0  0  0  0  0  0  0  0  0  0  0  0
    5.5692   45.2048   52.4042 N   0  0  0  0  0  0  0  0  0  0  0  0
    5.6844   44.5337   51.1699 C   0  0  0  0  0  0  0  0  0  0  0  0
    4.9326   43.4078   50.8327 C   0  0  0  0  0  0  0  0  0  0  0  0
    5.1122   42.7607   49.6008 C   0  0  0  0  0  0  0  0  0  0  0  0
    6.0535   43.2112   48.6733 C   0  0  0  0  0  0  0  0  0  0  0  0
    6.2817   42.6099   47.4332 N   0  0  0  0  0  0  0  0  0  0  0  0
    5.7543   41.4981   46.7807 C   0  0  0  0  0  0  0  0  0  0  0  0
    6.4225   40.3397   46.6885 N   0  0  0  0  0  0  0  0  0  0  0  0
    5.8232   39.3266   46.0343 C   0  0  0  0  0  0  0  0  0  0  0  0
    4.5790   39.4231   45.4656 C   0  0  0  0  0  0  0  0  0  0  0  0
    3.9702   40.6437   45.6076 C   0  0  0  0  0  0  0  0  0  0  0  0
    4.5311   41.6838   46.2541 N   0  0  0  0  0  0  0  0  0  0  0  0
    6.8214   44.3302   49.0270 C   0  0  0  0  0  0  0  0  0  0  0  0
    6.6457   44.9769   50.2573 C   0  0  0  0  0  0  0  0  0  0  0  0
    6.4034   47.3614   53.3348 C   0  0  0  0  0  0  0  0  0  0  0  0
    5.4337   48.3852   53.1216 C   0  0  0  0  0  0  0  0  0  0  0  0
    5.9320   49.5576   53.6499 C   0  0  0  0  0  0  0  0  0  0  0  0
    7.1733   49.2848   54.1652 N   0  0  0  0  0  0  0  0  0  0  0  0
    7.4758   47.9649   53.9699 C   0  0  0  0  0  0  0  0  0  0  0  0
    8.6265   47.3887   54.3420 N   0  0  0  0  0  0  0  0  0  0  0  0
   10.5191   45.1558   53.4727 H   0  0  0  0  0  0  0  0  0  0  0  0
   10.4946   45.9242   55.0961 H   0  0  0  0  0  0  0  0  0  0  0  0
    9.6333   44.3714   54.8243 H   0  0  0  0  0  0  0  0  0  0  0  0
    4.6954   45.7232   52.4489 H   0  0  0  0  0  0  0  0  0  0  0  0
    4.1875   43.0214   51.5438 H   0  0  0  0  0  0  0  0  0  0  0  0
    4.4985   41.8799   49.3607 H   0  0  0  0  0  0  0  0  0  0  0  0
    6.9515   43.0529   46.8224 H   0  0  0  0  0  0  0  0  0  0  0  0
    6.3606   38.3704   45.9516 H   0  0  0  0  0  0  0  0  0  0  0  0
    4.1049   38.5842   44.9351 H   0  0  0  0  0  0  0  0  0  0  0  0
    2.9702   40.7807   45.1702 H   0  0  0  0  0  0  0  0  0  0  0  0
    7.5778   44.7081   48.3233 H   0  0  0  0  0  0  0  0  0  0  0  0
    7.2728   45.8451   50.5085 H   0  0  0  0  0  0  0  0  0  0  0  0
    4.4605   48.2616   52.6238 H   0  0  0  0  0  0  0  0  0  0  0  0
    5.4257   50.5342   53.6567 H   0  0  0  0  0  0  0  0  0  0  0  0
    7.7956   49.9423   54.6130 H   0  0  0  0  0  0  0  0  0  0  0  0
  1  2  1  0
  2  3  2  0
  3  4  1  0
  4  5  1  0
  5  6  1  0
  6  7  2  0
  7  8  1  0
  8  9  2  0
  9 10  1  0
 10 11  1  0
 11 12  2  0
 12 13  1  0
 13 14  2  0
 14 15  1  0
 15 16  2  0
  9 17  1  0
 17 18  2  0
  4 19  2  0
 19 20  1  0
 20 21  2  0
 21 22  1  0
 22 23  1  0
 23 24  2  0
 24  2  1  0
 18  6  1  0
 23 19  1  0
 16 11  1  0
  1 25  1  0
  1 26  1  0
  1 27  1  0
  5 28  1  0
  7 29  1  0
  8 30  1  0
 10 31  1  0
 13 32  1  0
 14 33  1  0
 15 34  1  0
 17 35  1  0
 18 36  1  0
 20 37  1  0
 21 38  1  0
 22 39  1  0
M  END
>  <meeko>  (254) 
{"is_sidechain": false}

>  <CID>  (254) 
Z1883550081

>  <pose_index>  (254) 
10

>  <docking_score>  (254) 
-8.257

>  <rmsd_to_best_selected>  (254) 
1.0590834667442903

>  <MWT>  (254) 
317.3559999999997

>  <TPSA>  (254) 
91.41000000000001

>  <logP>  (254) 
3.543520000000001

>  <HBD>  (254) 
3

>  <HBA>  (254) 
6

>  <SMILES>  (254) 
[H]c1nc(N([H])c2c([H])c([H])c(N([H])c3nc(C([H])([H])[H])nc4c3c([H])c([H])n4[H])c([H])c2[H])nc([H])c1[H]

$$$$
Z1887562379_pose1
     RDKit          3D

 43 46  0  0  0  0  0  0  0  0999 V2000
    9.8300   47.1520   52.4830 C   0  0  0  0  0  0  0  0  0  0  0  0
    9.5610   46.7830   53.7970 C   0  0  0  0  0  0  0  0  0  0  0  0
    8.2440   46.5680   54.2110 C   0  0  0  0  0  0  0  0  0  0  0  0
    7.1810   46.7090   53.3030 C   0  0  0  0  0  0  0  0  0  0  0  0
    5.8500   46.4750   53.7430 N   0  0  0  0  0  0  0  0  0  0  0  0
    5.1250   47.2790   54.5930 C   0  0  0  0  0  0  0  0  0  0  0  0
    3.9240   46.7880   54.7880 N   0  0  0  0  0  0  0  0  0  0  0  0
    3.8340   45.6260   54.0870 N   0  0  0  0  0  0  0  0  0  0  0  0
    4.9860   45.4220   53.4750 C   0  0  0  0  0  0  0  0  0  0  0  0
    5.3040   44.1570   52.7600 C   0  0  0  0  0  0  0  0  0  0  0  0
    4.8750   44.2270   51.2980 N   0  0  0  0  0  4  0  0  0  0  0  0
    6.0170   44.2400   50.3180 C   0  0  0  0  0  0  0  0  0  0  0  0
    6.1590   42.8950   49.6040 C   0  0  0  0  0  0  0  0  0  0  0  0
    5.7430   41.7110   50.4680 C   0  0  0  0  0  0  0  0  0  0  0  0
    4.3010   41.8380   50.9770 C   0  0  0  0  0  0  0  0  0  0  0  0
    3.7600   43.2700   50.9050 C   0  0  0  0  0  0  0  0  0  0  0  0
    2.4770   43.4910   51.6650 C   0  0  0  0  0  0  0  0  0  0  0  0
    2.0720   42.7070   52.7060 N   0  0  0  0  0  0  0  0  0  0  0  0
    0.9140   43.2270   53.0430 C   0  0  0  0  0  0  0  0  0  0  0  0
    0.6410   44.2920   52.2420 N   0  0  0  0  0  0  0  0  0  0  0  0
    1.6480   44.5060   51.3670 N   0  0  0  0  0  0  0  0  0  0  0  0
    7.4610   47.0990   51.9860 C   0  0  0  0  0  0  0  0  0  0  0  0
    8.7820   47.3150   51.5810 C   0  0  0  0  0  0  0  0  0  0  0  0
   10.8681   47.3146   52.1574 H   0  0  0  0  0  0  0  0  0  0  0  0
   10.3876   46.6601   54.5122 H   0  0  0  0  0  0  0  0  0  0  0  0
    8.0380   46.2866   55.2543 H   0  0  0  0  0  0  0  0  0  0  0  0
    5.5015   48.2074   55.0473 H   0  0  0  0  0  0  0  0  0  0  0  0
    6.3888   43.9809   52.8076 H   0  0  0  0  0  0  0  0  0  0  0  0
    4.7561   43.3356   53.2449 H   0  0  0  0  0  0  0  0  0  0  0  0
    4.4270   45.1580   51.2460 H   0  0  0  0  0  0  0  0  0  0  0  0
    5.8361   45.0249   49.5689 H   0  0  0  0  0  0  0  0  0  0  0  0
    6.9461   44.4353   50.8736 H   0  0  0  0  0  0  0  0  0  0  0  0
    5.5284   42.9091   48.7028 H   0  0  0  0  0  0  0  0  0  0  0  0
    7.2238   42.7645   49.3606 H   0  0  0  0  0  0  0  0  0  0  0  0
    5.8274   40.7909   49.8711 H   0  0  0  0  0  0  0  0  0  0  0  0
    6.4075   41.6846   51.3442 H   0  0  0  0  0  0  0  0  0  0  0  0
    3.6561   41.1894   50.3660 H   0  0  0  0  0  0  0  0  0  0  0  0
    4.3005   41.5410   52.0361 H   0  0  0  0  0  0  0  0  0  0  0  0
    3.4586   43.4735   49.8668 H   0  0  0  0  0  0  0  0  0  0  0  0
    0.2640   42.8576   53.8499 H   0  0  0  0  0  0  0  0  0  0  0  0
   -0.1750   44.8980   52.2370 H   0  0  0  0  0  0  0  0  0  0  0  0
    6.6386   47.2356   51.2684 H   0  0  0  0  0  0  0  0  0  0  0  0
    8.9942   47.6153   50.5443 H   0  0  0  0  0  0  0  0  0  0  0  0
  1  2  2  0
  2  3  1  0
  3  4  2  0
  4  5  1  0
  5  6  1  0
  6  7  2  0
  7  8  1  0
  8  9  2  0
  9 10  1  0
 10 11  1  0
 11 12  1  0
 12 13  1  0
 13 14  1  0
 14 15  1  0
 15 16  1  0
 16 17  1  0
 17 18  1  0
 18 19  2  0
 19 20  1  0
 20 21  1  0
  4 22  1  0
 22 23  2  0
 23  1  1  0
  9  5  1  0
 16 11  1  0
 21 17  2  0
  1 24  1  0
  2 25  1  0
  3 26  1  0
  6 27  1  0
 10 28  1  0
 10 29  1  0
 11 30  1  0
 12 31  1  0
 12 32  1  0
 13 33  1  0
 13 34  1  0
 14 35  1  0
 14 36  1  0
 15 37  1  0
 15 38  1  0
 16 39  1  0
 19 40  1  0
 20 41  1  0
 22 42  1  0
 23 43  1  0
M  CHG  1  11   1
M  END
>  <meeko>  (255) 
{"is_sidechain": false}

>  <CID>  (255) 
Z1887562379

>  <pose_index>  (255) 
1

>  <docking_score>  (255) 
-8.346

>  <rmsd_to_best_selected>  (255) 
0.0

>  <MWT>  (255) 
310.38499999999965

>  <TPSA>  (255) 
76.72

>  <logP>  (255) 
0.6954999999999993

>  <HBD>  (255) 
2

>  <HBA>  (255) 
5

>  <SMILES>  (255) 
[H]c1c([H])c([H])c(-n2c([H])nnc2C([H])([H])[N+]2([H])C([H])([H])C([H])([H])C([H])([H])C([H])([H])C2([H])c2nc([H])n([H])n2)c([H])c1[H]

$$$$
Z1887562379_pose3
     RDKit          3D

 43 46  0  0  0  0  0  0  0  0999 V2000
    9.7958   46.6105   52.0702 C   0  0  0  0  0  0  0  0  0  0  0  0
    9.3412   45.6054   52.9194 C   0  0  0  0  0  0  0  0  0  0  0  0
    8.0402   45.6489   53.4246 C   0  0  0  0  0  0  0  0  0  0  0  0
    7.1739   46.6978   53.0731 C   0  0  0  0  0  0  0  0  0  0  0  0
    5.8503   46.7164   53.5911 N   0  0  0  0  0  0  0  0  0  0  0  0
    5.2807   47.7347   54.3223 C   0  0  0  0  0  0  0  0  0  0  0  0
    4.0410   47.4453   54.6358 N   0  0  0  0  0  0  0  0  0  0  0  0
    3.7656   46.2099   54.1378 N   0  0  0  0  0  0  0  0  0  0  0  0
    4.8466   45.7593   53.5292 C   0  0  0  0  0  0  0  0  0  0  0  0
    4.9631   44.3668   53.0200 C   0  0  0  0  0  0  0  0  0  0  0  0
    4.7854   44.3150   51.5060 N   0  0  0  0  0  4  0  0  0  0  0  0
    6.0743   44.3695   50.7310 C   0  0  0  0  0  0  0  0  0  0  0  0
    6.4359   43.0021   50.1477 C   0  0  0  0  0  0  0  0  0  0  0  0
    5.9665   41.8381   51.0124 C   0  0  0  0  0  0  0  0  0  0  0  0
    4.4537   41.8717   51.2651 C   0  0  0  0  0  0  0  0  0  0  0  0
    3.8287   43.2467   51.0025 C   0  0  0  0  0  0  0  0  0  0  0  0
    2.4219   43.4014   51.5215 C   0  0  0  0  0  0  0  0  0  0  0  0
    1.8077   44.6080   51.6897 N   0  0  0  0  0  0  0  0  0  0  0  0
    0.6325   44.2842   52.1787 C   0  0  0  0  0  0  0  0  0  0  0  0
    0.5406   42.9309   52.2870 N   0  0  0  0  0  0  0  0  0  0  0  0
    1.6661   42.3351   51.8378 N   0  0  0  0  0  0  0  0  0  0  0  0
    7.6473   47.7158   52.2322 C   0  0  0  0  0  0  0  0  0  0  0  0
    8.9531   47.6647   51.7328 C   0  0  0  0  0  0  0  0  0  0  0  0
   10.8185   46.5712   51.6670 H   0  0  0  0  0  0  0  0  0  0  0  0
   10.0086   44.7749   53.1931 H   0  0  0  0  0  0  0  0  0  0  0  0
    7.6910   44.8563   54.1026 H   0  0  0  0  0  0  0  0  0  0  0  0
    5.7958   48.6646   54.6050 H   0  0  0  0  0  0  0  0  0  0  0  0
    5.9571   43.9726   53.2781 H   0  0  0  0  0  0  0  0  0  0  0  0
    4.1719   43.7595   53.4840 H   0  0  0  0  0  0  0  0  0  0  0  0
    4.2859   45.2005   51.3149 H   0  0  0  0  0  0  0  0  0  0  0  0
    5.9666   45.0918   49.9084 H   0  0  0  0  0  0  0  0  0  0  0  0
    6.8774   44.6752   51.4177 H   0  0  0  0  0  0  0  0  0  0  0  0
    5.9699   42.9108   49.1555 H   0  0  0  0  0  0  0  0  0  0  0  0
    7.5333   42.9487   50.0950 H   0  0  0  0  0  0  0  0  0  0  0  0
    6.2191   40.8958   50.5042 H   0  0  0  0  0  0  0  0  0  0  0  0
    6.4716   41.9180   51.9863 H   0  0  0  0  0  0  0  0  0  0  0  0
    3.9722   41.1365   50.6036 H   0  0  0  0  0  0  0  0  0  0  0  0
    4.2942   41.6374   52.3280 H   0  0  0  0  0  0  0  0  0  0  0  0
    3.6955   43.3638   49.9169 H   0  0  0  0  0  0  0  0  0  0  0  0
   -0.1566   44.9978   52.4580 H   0  0  0  0  0  0  0  0  0  0  0  0
   -0.2282   42.3667   52.6396 H   0  0  0  0  0  0  0  0  0  0  0  0
    6.9901   48.5563   51.9646 H   0  0  0  0  0  0  0  0  0  0  0  0
    9.3160   48.4633   51.0691 H   0  0  0  0  0  0  0  0  0  0  0  0
  1  2  2  0
  2  3  1  0
  3  4  2  0
  4  5  1  0
  5  6  1  0
  6  7  2  0
  7  8  1  0
  8  9  2  0
  9 10  1  0
 10 11  1  0
 11 12  1  0
 12 13  1  0
 13 14  1  0
 14 15  1  0
 15 16  1  0
 16 17  1  0
 17 18  1  0
 18 19  2  0
 19 20  1  0
 20 21  1  0
  4 22  1  0
 22 23  2  0
 23  1  1  0
  9  5  1  0
 16 11  1  0
 21 17  2  0
  1 24  1  0
  2 25  1  0
  3 26  1  0
  6 27  1  0
 10 28  1  0
 10 29  1  0
 11 30  1  0
 12 31  1  0
 12 32  1  0
 13 33  1  0
 13 34  1  0
 14 35  1  0
 14 36  1  0
 15 37  1  0
 15 38  1  0
 16 39  1  0
 19 40  1  0
 20 41  1  0
 22 42  1  0
 23 43  1  0
M  CHG  1  11   1
M  END
>  <meeko>  (256) 
{"is_sidechain": false}

>  <CID>  (256) 
Z1887562379

>  <pose_index>  (256) 
3

>  <docking_score>  (256) 
-8.128

>  <rmsd_to_best_selected>  (256) 
1.0827350105354119

>  <MWT>  (256) 
310.38499999999965

>  <TPSA>  (256) 
76.72

>  <logP>  (256) 
0.6954999999999993

>  <HBD>  (256) 
2

>  <HBA>  (256) 
5

>  <SMILES>  (256) 
[H]c1c([H])c([H])c(-n2c([H])nnc2C([H])([H])[N+]2([H])C([H])([H])C([H])([H])C([H])([H])C([H])([H])C2([H])c2nc([H])n([H])n2)c([H])c1[H]

$$$$
Z1887562379_pose6
     RDKit          3D

 43 46  0  0  0  0  0  0  0  0999 V2000
    9.6077   46.5432   51.4695 C   0  0  0  0  0  0  0  0  0  0  0  0
    8.7820   47.6080   51.1195 C   0  0  0  0  0  0  0  0  0  0  0  0
    7.5264   47.7480   51.7153 C   0  0  0  0  0  0  0  0  0  0  0  0
    7.0900   46.8256   52.6811 C   0  0  0  0  0  0  0  0  0  0  0  0
    5.8130   46.9931   53.2814 N   0  0  0  0  0  0  0  0  0  0  0  0
    5.3519   48.1347   53.8985 C   0  0  0  0  0  0  0  0  0  0  0  0
    4.1265   47.9651   54.3345 N   0  0  0  0  0  0  0  0  0  0  0  0
    3.7534   46.6913   54.0379 N   0  0  0  0  0  0  0  0  0  0  0  0
    4.7614   46.0979   53.4253 C   0  0  0  0  0  0  0  0  0  0  0  0
    4.7702   44.6438   53.1123 C   0  0  0  0  0  0  0  0  0  0  0  0
    4.3500   44.3878   51.6679 N   0  0  0  0  0  4  0  0  0  0  0  0
    5.3110   44.9213   50.6413 C   0  0  0  0  0  0  0  0  0  0  0  0
    6.1179   43.7972   49.9902 C   0  0  0  0  0  0  0  0  0  0  0  0
    6.3807   42.6258   50.9295 C   0  0  0  0  0  0  0  0  0  0  0  0
    5.0850   42.0283   51.4934 C   0  0  0  0  0  0  0  0  0  0  0  0
    3.8829   42.9716   51.3723 C   0  0  0  0  0  0  0  0  0  0  0  0
    2.6778   42.5516   52.1753 C   0  0  0  0  0  0  0  0  0  0  0  0
    1.5009   43.2419   52.1872 N   0  0  0  0  0  0  0  0  0  0  0  0
    0.7559   42.5552   53.0234 C   0  0  0  0  0  0  0  0  0  0  0  0
    1.4554   41.4838   53.4837 N   0  0  0  0  0  0  0  0  0  0  0  0
    2.6863   41.4378   52.9280 N   0  0  0  0  0  0  0  0  0  0  0  0
    7.9213   45.7475   53.0135 C   0  0  0  0  0  0  0  0  0  0  0  0
    9.1760   45.6132   52.4096 C   0  0  0  0  0  0  0  0  0  0  0  0
   10.5987   46.4376   51.0039 H   0  0  0  0  0  0  0  0  0  0  0  0
    9.1192   48.3410   50.3719 H   0  0  0  0  0  0  0  0  0  0  0  0
    6.8750   48.5860   51.4265 H   0  0  0  0  0  0  0  0  0  0  0  0
    5.9323   49.0624   54.0104 H   0  0  0  0  0  0  0  0  0  0  0  0
    5.7857   44.2498   53.2658 H   0  0  0  0  0  0  0  0  0  0  0  0
    4.0540   44.1399   53.7780 H   0  0  0  0  0  0  0  0  0  0  0  0
    3.4856   44.9507   51.5896 H   0  0  0  0  0  0  0  0  0  0  0  0
    4.7436   45.4514   49.8622 H   0  0  0  0  0  0  0  0  0  0  0  0
    6.0127   45.6014   51.1464 H   0  0  0  0  0  0  0  0  0  0  0  0
    5.5605   43.4271   49.1171 H   0  0  0  0  0  0  0  0  0  0  0  0
    7.0951   44.2165   49.7088 H   0  0  0  0  0  0  0  0  0  0  0  0
    6.9196   41.8428   50.3759 H   0  0  0  0  0  0  0  0  0  0  0  0
    6.9743   43.0007   51.7763 H   0  0  0  0  0  0  0  0  0  0  0  0
    4.8593   41.1020   50.9447 H   0  0  0  0  0  0  0  0  0  0  0  0
    5.2493   41.8437   52.5653 H   0  0  0  0  0  0  0  0  0  0  0  0
    3.5084   42.9233   50.3391 H   0  0  0  0  0  0  0  0  0  0  0  0
   -0.2761   42.8082   53.3077 H   0  0  0  0  0  0  0  0  0  0  0  0
    1.1703   40.7697   54.1480 H   0  0  0  0  0  0  0  0  0  0  0  0
    7.5860   45.0043   53.7518 H   0  0  0  0  0  0  0  0  0  0  0  0
    9.8250   44.7672   52.6798 H   0  0  0  0  0  0  0  0  0  0  0  0
  1  2  2  0
  2  3  1  0
  3  4  2  0
  4  5  1  0
  5  6  1  0
  6  7  2  0
  7  8  1  0
  8  9  2  0
  9 10  1  0
 10 11  1  0
 11 12  1  0
 12 13  1  0
 13 14  1  0
 14 15  1  0
 15 16  1  0
 16 17  1  0
 17 18  1  0
 18 19  2  0
 19 20  1  0
 20 21  1  0
  4 22  1  0
 22 23  2  0
 23  1  1  0
  9  5  1  0
 16 11  1  0
 21 17  2  0
  1 24  1  0
  2 25  1  0
  3 26  1  0
  6 27  1  0
 10 28  1  0
 10 29  1  0
 11 30  1  0
 12 31  1  0
 12 32  1  0
 13 33  1  0
 13 34  1  0
 14 35  1  0
 14 36  1  0
 15 37  1  0
 15 38  1  0
 16 39  1  0
 19 40  1  0
 20 41  1  0
 22 42  1  0
 23 43  1  0
M  CHG  1  11   1
M  END
>  <meeko>  (257) 
{"is_sidechain": false}

>  <CID>  (257) 
Z1887562379

>  <pose_index>  (257) 
6

>  <docking_score>  (257) 
-7.991

>  <rmsd_to_best_selected>  (257) 
1.436822507245855

>  <MWT>  (257) 
310.38499999999965

>  <TPSA>  (257) 
76.72

>  <logP>  (257) 
0.6954999999999993

>  <HBD>  (257) 
2

>  <HBA>  (257) 
5

>  <SMILES>  (257) 
[H]c1c([H])c([H])c(-n2c([H])nnc2C([H])([H])[N+]2([H])C([H])([H])C([H])([H])C([H])([H])C([H])([H])C2([H])c2nc([H])n([H])n2)c([H])c1[H]

$$$$
Z1887562379_pose8
     RDKit          3D

 43 46  0  0  0  0  0  0  0  0999 V2000
    9.6452   47.0948   53.0623 C   0  0  0  0  0  0  0  0  0  0  0  0
    9.0016   48.3241   52.9557 C   0  0  0  0  0  0  0  0  0  0  0  0
    7.6232   48.3782   52.7332 C   0  0  0  0  0  0  0  0  0  0  0  0
    6.8728   47.1954   52.6282 C   0  0  0  0  0  0  0  0  0  0  0  0
    5.4704   47.2740   52.4125 N   0  0  0  0  0  0  0  0  0  0  0  0
    4.7329   48.4310   52.2942 C   0  0  0  0  0  0  0  0  0  0  0  0
    3.4674   48.1567   52.0845 N   0  0  0  0  0  0  0  0  0  0  0  0
    3.3318   46.8037   52.0843 N   0  0  0  0  0  0  0  0  0  0  0  0
    4.5196   46.2690   52.2973 C   0  0  0  0  0  0  0  0  0  0  0  0
    4.7166   44.8140   52.5354 C   0  0  0  0  0  0  0  0  0  0  0  0
    4.5815   44.0200   51.2397 N   0  0  0  0  0  4  0  0  0  0  0  0
    5.7645   44.1369   50.3173 C   0  0  0  0  0  0  0  0  0  0  0  0
    6.6093   42.8620   50.3233 C   0  0  0  0  0  0  0  0  0  0  0  0
    6.5978   42.1424   51.6666 C   0  0  0  0  0  0  0  0  0  0  0  0
    5.1785   41.7836   52.1249 C   0  0  0  0  0  0  0  0  0  0  0  0
    4.0908   42.5894   51.4065 C   0  0  0  0  0  0  0  0  0  0  0  0
    2.7236   42.4879   52.0321 C   0  0  0  0  0  0  0  0  0  0  0  0
    1.9814   41.3420   52.0428 N   0  0  0  0  0  0  0  0  0  0  0  0
    0.8736   41.7061   52.6488 C   0  0  0  0  0  0  0  0  0  0  0  0
    0.9547   43.0173   53.0007 N   0  0  0  0  0  0  0  0  0  0  0  0
    2.1498   43.5373   52.6449 N   0  0  0  0  0  0  0  0  0  0  0  0
    7.5334   45.9621   52.7185 C   0  0  0  0  0  0  0  0  0  0  0  0
    8.9147   45.9170   52.9378 C   0  0  0  0  0  0  0  0  0  0  0  0
   10.7292   47.0543   53.2446 H   0  0  0  0  0  0  0  0  0  0  0  0
    9.5796   49.2556   53.0467 H   0  0  0  0  0  0  0  0  0  0  0  0
    7.1225   49.3531   52.6398 H   0  0  0  0  0  0  0  0  0  0  0  0
    5.1485   49.4470   52.3659 H   0  0  0  0  0  0  0  0  0  0  0  0
    5.7213   44.6514   52.9528 H   0  0  0  0  0  0  0  0  0  0  0  0
    3.9442   44.4682   53.2381 H   0  0  0  0  0  0  0  0  0  0  0  0
    3.7903   44.4965   50.7730 H   0  0  0  0  0  0  0  0  0  0  0  0
    5.4034   44.3213   49.2947 H   0  0  0  0  0  0  0  0  0  0  0  0
    6.3934   44.9689   50.6670 H   0  0  0  0  0  0  0  0  0  0  0  0
    6.2161   42.1782   49.5566 H   0  0  0  0  0  0  0  0  0  0  0  0
    7.6490   43.1571   50.1186 H   0  0  0  0  0  0  0  0  0  0  0  0
    7.1848   41.2164   51.5765 H   0  0  0  0  0  0  0  0  0  0  0  0
    7.0305   42.8222   52.4153 H   0  0  0  0  0  0  0  0  0  0  0  0
    5.0078   40.7145   51.9300 H   0  0  0  0  0  0  0  0  0  0  0  0
    5.1100   42.0240   53.1961 H   0  0  0  0  0  0  0  0  0  0  0  0
    3.9306   42.1444   50.4134 H   0  0  0  0  0  0  0  0  0  0  0  0
    0.0120   41.0502   52.8421 H   0  0  0  0  0  0  0  0  0  0  0  0
    0.2647   43.5990   53.4683 H   0  0  0  0  0  0  0  0  0  0  0  0
    6.9639   45.0266   52.6165 H   0  0  0  0  0  0  0  0  0  0  0  0
    9.4256   44.9457   53.0122 H   0  0  0  0  0  0  0  0  0  0  0  0
  1  2  2  0
  2  3  1  0
  3  4  2  0
  4  5  1  0
  5  6  1  0
  6  7  2  0
  7  8  1  0
  8  9  2  0
  9 10  1  0
 10 11  1  0
 11 12  1  0
 12 13  1  0
 13 14  1  0
 14 15  1  0
 15 16  1  0
 16 17  1  0
 17 18  1  0
 18 19  2  0
 19 20  1  0
 20 21  1  0
  4 22  1  0
 22 23  2  0
 23  1  1  0
  9  5  1  0
 16 11  1  0
 21 17  2  0
  1 24  1  0
  2 25  1  0
  3 26  1  0
  6 27  1  0
 10 28  1  0
 10 29  1  0
 11 30  1  0
 12 31  1  0
 12 32  1  0
 13 33  1  0
 13 34  1  0
 14 35  1  0
 14 36  1  0
 15 37  1  0
 15 38  1  0
 16 39  1  0
 19 40  1  0
 20 41  1  0
 22 42  1  0
 23 43  1  0
M  CHG  1  11   1
M  END
>  <meeko>  (258) 
{"is_sidechain": false}

>  <CID>  (258) 
Z1887562379

>  <pose_index>  (258) 
8

>  <docking_score>  (258) 
-7.733

>  <rmsd_to_best_selected>  (258) 
1.4129143704350389

>  <MWT>  (258) 
310.38499999999965

>  <TPSA>  (258) 
76.72

>  <logP>  (258) 
0.6954999999999993

>  <HBD>  (258) 
2

>  <HBA>  (258) 
5

>  <SMILES>  (258) 
[H]c1c([H])c([H])c(-n2c([H])nnc2C([H])([H])[N+]2([H])C([H])([H])C([H])([H])C([H])([H])C([H])([H])C2([H])c2nc([H])n([H])n2)c([H])c1[H]

$$$$
Z1887562379_pose10
     RDKit          3D

 43 46  0  0  0  0  0  0  0  0999 V2000
    9.7041   46.6926   51.9200 C   0  0  0  0  0  0  0  0  0  0  0  0
    8.8506   47.4579   51.1299 C   0  0  0  0  0  0  0  0  0  0  0  0
    7.5069   47.6005   51.4822 C   0  0  0  0  0  0  0  0  0  0  0  0
    7.0059   46.9853   52.6421 C   0  0  0  0  0  0  0  0  0  0  0  0
    5.6378   47.1516   52.9866 N   0  0  0  0  0  0  0  0  0  0  0  0
    5.0354   48.3307   53.3656 C   0  0  0  0  0  0  0  0  0  0  0  0
    3.7587   48.1461   53.6011 N   0  0  0  0  0  0  0  0  0  0  0  0
    3.4881   46.8281   53.4078 N   0  0  0  0  0  0  0  0  0  0  0  0
    4.6087   46.2229   53.0587 C   0  0  0  0  0  0  0  0  0  0  0  0
    4.7212   44.7446   52.9394 C   0  0  0  0  0  0  0  0  0  0  0  0
    4.3600   44.2758   51.5330 N   0  0  0  0  0  4  0  0  0  0  0  0
    5.3319   44.7081   50.4686 C   0  0  0  0  0  0  0  0  0  0  0  0
    6.2051   43.5438   49.9996 C   0  0  0  0  0  0  0  0  0  0  0  0
    6.4853   42.5239   51.0980 C   0  0  0  0  0  0  0  0  0  0  0  0
    5.1970   41.9500   51.7027 C   0  0  0  0  0  0  0  0  0  0  0  0
    3.9618   42.8121   51.4214 C   0  0  0  0  0  0  0  0  0  0  0  0
    2.7499   42.4509   52.2417 C   0  0  0  0  0  0  0  0  0  0  0  0
    2.7278   41.4312   53.1479 N   0  0  0  0  0  0  0  0  0  0  0  0
    1.4934   41.4521   53.5972 C   0  0  0  0  0  0  0  0  0  0  0  0
    0.8048   42.4569   52.9921 N   0  0  0  0  0  0  0  0  0  0  0  0
    1.5996   43.1393   52.1388 N   0  0  0  0  0  0  0  0  0  0  0  0
    7.8688   46.2017   53.4209 C   0  0  0  0  0  0  0  0  0  0  0  0
    9.2138   46.0621   53.0587 C   0  0  0  0  0  0  0  0  0  0  0  0
   10.7637   46.5869   51.6443 H   0  0  0  0  0  0  0  0  0  0  0  0
    9.2359   47.9517   50.2256 H   0  0  0  0  0  0  0  0  0  0  0  0
    6.8361   48.1982   50.8475 H   0  0  0  0  0  0  0  0  0  0  0  0
    5.5547   49.2959   53.4582 H   0  0  0  0  0  0  0  0  0  0  0  0
    5.7555   44.4441   53.1633 H   0  0  0  0  0  0  0  0  0  0  0  0
    4.0208   44.2832   53.6512 H   0  0  0  0  0  0  0  0  0  0  0  0
    3.4768   44.7833   51.3542 H   0  0  0  0  0  0  0  0  0  0  0  0
    4.7690   45.1013   49.6092 H   0  0  0  0  0  0  0  0  0  0  0  0
    5.9880   45.4816   50.8944 H   0  0  0  0  0  0  0  0  0  0  0  0
    5.6922   43.0335   49.1711 H   0  0  0  0  0  0  0  0  0  0  0  0
    7.1728   43.9647   49.6893 H   0  0  0  0  0  0  0  0  0  0  0  0
    7.0745   41.6983   50.6721 H   0  0  0  0  0  0  0  0  0  0  0  0
    7.0345   43.0369   51.9013 H   0  0  0  0  0  0  0  0  0  0  0  0
    5.0281   40.9487   51.2797 H   0  0  0  0  0  0  0  0  0  0  0  0
    5.3331   41.9201   52.7938 H   0  0  0  0  0  0  0  0  0  0  0  0
    3.6238   42.6071   50.3950 H   0  0  0  0  0  0  0  0  0  0  0  0
    1.0800   40.7625   54.3479 H   0  0  0  0  0  0  0  0  0  0  0  0
   -0.1681   42.7282   53.1101 H   0  0  0  0  0  0  0  0  0  0  0  0
    7.4877   45.6948   54.3197 H   0  0  0  0  0  0  0  0  0  0  0  0
    9.8865   45.4505   53.6779 H   0  0  0  0  0  0  0  0  0  0  0  0
  1  2  2  0
  2  3  1  0
  3  4  2  0
  4  5  1  0
  5  6  1  0
  6  7  2  0
  7  8  1  0
  8  9  2  0
  9 10  1  0
 10 11  1  0
 11 12  1  0
 12 13  1  0
 13 14  1  0
 14 15  1  0
 15 16  1  0
 16 17  1  0
 17 18  1  0
 18 19  2  0
 19 20  1  0
 20 21  1  0
  4 22  1  0
 22 23  2  0
 23  1  1  0
  9  5  1  0
 16 11  1  0
 21 17  2  0
  1 24  1  0
  2 25  1  0
  3 26  1  0
  6 27  1  0
 10 28  1  0
 10 29  1  0
 11 30  1  0
 12 31  1  0
 12 32  1  0
 13 33  1  0
 13 34  1  0
 14 35  1  0
 14 36  1  0
 15 37  1  0
 15 38  1  0
 16 39  1  0
 19 40  1  0
 20 41  1  0
 22 42  1  0
 23 43  1  0
M  CHG  1  11   1
M  END
>  <meeko>  (259) 
{"is_sidechain": false}

>  <CID>  (259) 
Z1887562379

>  <pose_index>  (259) 
10

>  <docking_score>  (259) 
-7.646

>  <rmsd_to_best_selected>  (259) 
1.1206531044285868

>  <MWT>  (259) 
310.38499999999965

>  <TPSA>  (259) 
76.72

>  <logP>  (259) 
0.6954999999999993

>  <HBD>  (259) 
2

>  <HBA>  (259) 
5

>  <SMILES>  (259) 
[H]c1c([H])c([H])c(-n2c([H])nnc2C([H])([H])[N+]2([H])C([H])([H])C([H])([H])C([H])([H])C([H])([H])C2([H])c2nc([H])n([H])n2)c([H])c1[H]

$$$$
Z195569274_pose1
     RDKit          3D

 52 55  0  0  0  0  0  0  0  0999 V2000
    3.4620   42.0420   51.8790 C   0  0  0  0  0  0  0  0  0  0  0  0
    3.6960   43.5530   51.8050 C   0  0  0  0  0  0  0  0  0  0  0  0
    5.0800   43.8260   51.2150 C   0  0  0  0  0  0  0  0  0  0  0  0
    5.4730   43.0730   50.1890 N   0  0  0  0  0  0  0  0  0  0  0  0
    6.6140   43.4480   49.6340 C   0  0  0  0  0  0  0  0  0  0  0  0
    7.0850   42.6990   48.5810 N   0  0  0  0  0  0  0  0  0  0  0  0
    7.3250   44.5000   50.0040 N   0  0  0  0  0  0  0  0  0  0  0  0
    6.8360   45.2300   51.0020 C   0  0  0  0  0  0  0  0  0  0  0  0
    7.5640   46.3650   51.3340 N   0  0  0  0  0  0  0  0  0  0  0  0
    8.2970   46.7570   52.4630 C   0  0  0  0  0  0  0  0  0  0  0  0
    9.6560   46.4040   52.5330 C   0  0  0  0  0  0  0  0  0  0  0  0
   10.4500   46.7710   53.6230 C   0  0  0  0  0  0  0  0  0  0  0  0
    9.8980   47.4980   54.6720 C   0  0  0  0  0  0  0  0  0  0  0  0
    8.5540   47.8570   54.6260 C   0  0  0  0  0  0  0  0  0  0  0  0
    7.7640   47.4900   53.5300 C   0  0  0  0  0  0  0  0  0  0  0  0
    5.7020   44.9280   51.6240 N   0  0  0  0  0  0  0  0  0  0  0  0
    2.5680   44.2180   50.9700 N   0  0  0  0  0  4  0  0  0  0  0  0
    1.1930   43.5960   51.1200 C   0  0  0  0  0  0  0  0  0  0  0  0
    0.5930   43.8090   52.5260 C   0  0  0  0  0  0  0  0  0  0  0  0
    1.3200   44.8080   53.3130 N   0  0  0  0  0  0  0  0  0  0  0  0
    0.8430   45.0060   54.6060 C   0  0  0  0  0  0  0  0  0  0  0  0
    1.6930   45.4530   55.5430 N   0  0  0  0  0  0  0  0  0  0  0  0
    1.2160   45.6160   56.7940 C   0  0  0  0  0  0  0  0  0  0  0  0
   -0.0790   45.3450   57.1500 C   0  0  0  0  0  0  0  0  0  0  0  0
   -0.8760   44.8890   56.1320 C   0  0  0  0  0  0  0  0  0  0  0  0
   -0.4400   44.7130   54.8680 N   0  0  0  0  0  0  0  0  0  0  0  0
    1.8860   45.9990   52.6720 C   0  0  0  0  0  0  0  0  0  0  0  0
    2.4280   45.7150   51.2550 C   0  0  0  0  0  0  0  0  0  0  0  0
    3.4136   41.7296   52.9326 H   0  0  0  0  0  0  0  0  0  0  0  0
    2.5145   41.7928   51.3788 H   0  0  0  0  0  0  0  0  0  0  0  0
    4.2897   41.5179   51.3788 H   0  0  0  0  0  0  0  0  0  0  0  0
    3.6661   43.9913   52.8135 H   0  0  0  0  0  0  0  0  0  0  0  0
    6.3800   42.5930   47.8610 H   0  0  0  0  0  0  0  0  0  0  0  0
    7.9990   42.9970   48.2710 H   0  0  0  0  0  0  0  0  0  0  0  0
    7.5050   47.0440   50.5860 H   0  0  0  0  0  0  0  0  0  0  0  0
   10.1044   45.8260   51.7115 H   0  0  0  0  0  0  0  0  0  0  0  0
   11.5117   46.4847   53.6511 H   0  0  0  0  0  0  0  0  0  0  0  0
   10.5193   47.7874   55.5324 H   0  0  0  0  0  0  0  0  0  0  0  0
    8.1112   48.4309   55.4534 H   0  0  0  0  0  0  0  0  0  0  0  0
    6.7041   47.7832   53.5068 H   0  0  0  0  0  0  0  0  0  0  0  0
    2.8750   44.1300   49.9930 H   0  0  0  0  0  0  0  0  0  0  0  0
    0.5192   44.0485   50.3776 H   0  0  0  0  0  0  0  0  0  0  0  0
    1.2999   42.5122   50.9651 H   0  0  0  0  0  0  0  0  0  0  0  0
   -0.4499   44.1409   52.4155 H   0  0  0  0  0  0  0  0  0  0  0  0
    0.6644   42.8515   53.0628 H   0  0  0  0  0  0  0  0  0  0  0  0
    1.9029   45.9860   57.5694 H   0  0  0  0  0  0  0  0  0  0  0  0
   -0.4513   45.4830   58.1758 H   0  0  0  0  0  0  0  0  0  0  0  0
   -1.9266   44.6543   56.3581 H   0  0  0  0  0  0  0  0  0  0  0  0
    1.1011   46.7664   52.6008 H   0  0  0  0  0  0  0  0  0  0  0  0
    2.7320   46.3366   53.2887 H   0  0  0  0  0  0  0  0  0  0  0  0
    1.7366   46.1510   50.5189 H   0  0  0  0  0  0  0  0  0  0  0  0
    3.4298   46.1637   51.1843 H   0  0  0  0  0  0  0  0  0  0  0  0
  1  2  1  0
  2  3  1  0
  3  4  2  0
  4  5  1  0
  5  6  1  0
  5  7  2  0
  7  8  1  0
  8  9  1  0
  9 10  1  0
 10 11  2  0
 11 12  1  0
 12 13  2  0
 13 14  1  0
 14 15  2  0
  8 16  2  0
  2 17  1  0
 17 18  1  0
 18 19  1  0
 19 20  1  0
 20 21  1  0
 21 22  2  0
 22 23  1  0
 23 24  2  0
 24 25  1  0
 25 26  2  0
 20 27  1  0
 27 28  1  0
 16  3  1  0
 28 17  1  0
 15 10  1  0
 26 21  1  0
  1 29  1  0
  1 30  1  0
  1 31  1  0
  2 32  1  0
  6 33  1  0
  6 34  1  0
  9 35  1  0
 11 36  1  0
 12 37  1  0
 13 38  1  0
 14 39  1  0
 15 40  1  0
 17 41  1  0
 18 42  1  0
 18 43  1  0
 19 44  1  0
 19 45  1  0
 23 46  1  0
 24 47  1  0
 25 48  1  0
 27 49  1  0
 27 50  1  0
 28 51  1  0
 28 52  1  0
M  CHG  1  17   1
M  END
>  <meeko>  (260) 
{"is_sidechain": false}

>  <CID>  (260) 
Z195569274

>  <pose_index>  (260) 
1

>  <docking_score>  (260) 
-8.882

>  <rmsd_to_best_selected>  (260) 
0.0

>  <MWT>  (260) 
378.4639999999997

>  <TPSA>  (260) 
110.17999999999999

>  <logP>  (260) 
0.4535000000000009

>  <HBD>  (260) 
3

>  <HBA>  (260) 
8

>  <SMILES>  (260) 
[H]c1nc(N2C([H])([H])C([H])([H])[N+]([H])(C([H])(c3nc(N([H])[H])nc(N([H])c4c([H])c([H])c([H])c([H])c4[H])n3)C([H])([H])[H])C([H])([H])C2([H])[H])nc([H])c1[H]

$$$$
Z195569274_pose3
     RDKit          3D

 52 55  0  0  0  0  0  0  0  0999 V2000
    2.1460   43.8257   49.5421 C   0  0  0  0  0  0  0  0  0  0  0  0
    2.9611   44.4644   50.6711 C   0  0  0  0  0  0  0  0  0  0  0  0
    4.4336   44.5249   50.2645 C   0  0  0  0  0  0  0  0  0  0  0  0
    4.7218   45.0134   49.0592 N   0  0  0  0  0  0  0  0  0  0  0  0
    6.0142   45.1713   48.8220 C   0  0  0  0  0  0  0  0  0  0  0  0
    6.3795   45.6538   47.5870 N   0  0  0  0  0  0  0  0  0  0  0  0
    6.9786   44.9173   49.6904 N   0  0  0  0  0  0  0  0  0  0  0  0
    6.6029   44.4824   50.8898 C   0  0  0  0  0  0  0  0  0  0  0  0
    7.6257   44.2821   51.8082 N   0  0  0  0  0  0  0  0  0  0  0  0
    7.9298   44.8273   53.0631 C   0  0  0  0  0  0  0  0  0  0  0  0
    9.1972   45.4038   53.2531 C   0  0  0  0  0  0  0  0  0  0  0  0
    9.5642   45.9753   54.4743 C   0  0  0  0  0  0  0  0  0  0  0  0
    8.6674   45.9797   55.5368 C   0  0  0  0  0  0  0  0  0  0  0  0
    7.4072   45.4131   55.3735 C   0  0  0  0  0  0  0  0  0  0  0  0
    7.0445   44.8450   54.1472 C   0  0  0  0  0  0  0  0  0  0  0  0
    5.3302   44.2883   51.2173 N   0  0  0  0  0  0  0  0  0  0  0  0
    2.3903   45.8714   50.9976 N   0  0  0  0  0  4  0  0  0  0  0  0
    0.9499   45.8980   51.4685 C   0  0  0  0  0  0  0  0  0  0  0  0
    0.7638   45.2470   52.8566 C   0  0  0  0  0  0  0  0  0  0  0  0
    2.0307   45.0204   53.5551 N   0  0  0  0  0  0  0  0  0  0  0  0
    1.9197   44.3973   54.7953 C   0  0  0  0  0  0  0  0  0  0  0  0
    0.8968   43.5534   55.0012 N   0  0  0  0  0  0  0  0  0  0  0  0
    0.7951   42.9777   56.2166 C   0  0  0  0  0  0  0  0  0  0  0  0
    1.6734   43.2160   57.2412 C   0  0  0  0  0  0  0  0  0  0  0  0
    2.6842   44.0930   56.9441 C   0  0  0  0  0  0  0  0  0  0  0  0
    2.8238   44.6892   55.7422 N   0  0  0  0  0  0  0  0  0  0  0  0
    3.1315   45.9823   53.4425 C   0  0  0  0  0  0  0  0  0  0  0  0
    3.2265   46.6191   52.0386 C   0  0  0  0  0  0  0  0  0  0  0  0
    1.9504   42.7703   49.7827 H   0  0  0  0  0  0  0  0  0  0  0  0
    1.1906   44.3598   49.4321 H   0  0  0  0  0  0  0  0  0  0  0  0
    2.7116   43.8884   48.6007 H   0  0  0  0  0  0  0  0  0  0  0  0
    2.8878   43.8554   51.5842 H   0  0  0  0  0  0  0  0  0  0  0  0
    7.3477   45.9496   47.5799 H   0  0  0  0  0  0  0  0  0  0  0  0
    6.0919   45.0465   46.8328 H   0  0  0  0  0  0  0  0  0  0  0  0
    8.2901   43.6115   51.4426 H   0  0  0  0  0  0  0  0  0  0  0  0
    9.9170   45.4052   52.4213 H   0  0  0  0  0  0  0  0  0  0  0  0
   10.5623   46.4217   54.5950 H   0  0  0  0  0  0  0  0  0  0  0  0
    8.9523   46.4280   56.5000 H   0  0  0  0  0  0  0  0  0  0  0  0
    6.6940   45.4116   56.2110 H   0  0  0  0  0  0  0  0  0  0  0  0
    6.0434   44.4036   54.0328 H   0  0  0  0  0  0  0  0  0  0  0  0
    2.4692   46.3997   50.1185 H   0  0  0  0  0  0  0  0  0  0  0  0
    0.6170   46.9450   51.5234 H   0  0  0  0  0  0  0  0  0  0  0  0
    0.3543   45.3187   50.7476 H   0  0  0  0  0  0  0  0  0  0  0  0
    0.1368   45.9081   53.4729 H   0  0  0  0  0  0  0  0  0  0  0  0
    0.2935   44.2651   52.7000 H   0  0  0  0  0  0  0  0  0  0  0  0
   -0.0366   42.2802   56.3949 H   0  0  0  0  0  0  0  0  0  0  0  0
    1.5748   42.7394   58.2276 H   0  0  0  0  0  0  0  0  0  0  0  0
    3.4209   44.3230   57.7279 H   0  0  0  0  0  0  0  0  0  0  0  0
    2.9769   46.7821   54.1818 H   0  0  0  0  0  0  0  0  0  0  0  0
    4.0692   45.4364   53.6235 H   0  0  0  0  0  0  0  0  0  0  0  0
    2.8695   47.6579   52.0977 H   0  0  0  0  0  0  0  0  0  0  0  0
    4.2782   46.5700   51.7201 H   0  0  0  0  0  0  0  0  0  0  0  0
  1  2  1  0
  2  3  1  0
  3  4  2  0
  4  5  1  0
  5  6  1  0
  5  7  2  0
  7  8  1  0
  8  9  1  0
  9 10  1  0
 10 11  2  0
 11 12  1  0
 12 13  2  0
 13 14  1  0
 14 15  2  0
  8 16  2  0
  2 17  1  0
 17 18  1  0
 18 19  1  0
 19 20  1  0
 20 21  1  0
 21 22  2  0
 22 23  1  0
 23 24  2  0
 24 25  1  0
 25 26  2  0
 20 27  1  0
 27 28  1  0
 16  3  1  0
 28 17  1  0
 15 10  1  0
 26 21  1  0
  1 29  1  0
  1 30  1  0
  1 31  1  0
  2 32  1  0
  6 33  1  0
  6 34  1  0
  9 35  1  0
 11 36  1  0
 12 37  1  0
 13 38  1  0
 14 39  1  0
 15 40  1  0
 17 41  1  0
 18 42  1  0
 18 43  1  0
 19 44  1  0
 19 45  1  0
 23 46  1  0
 24 47  1  0
 25 48  1  0
 27 49  1  0
 27 50  1  0
 28 51  1  0
 28 52  1  0
M  CHG  1  17   1
M  END
>  <meeko>  (261) 
{"is_sidechain": false}

>  <CID>  (261) 
Z195569274

>  <pose_index>  (261) 
3

>  <docking_score>  (261) 
-8.428

>  <rmsd_to_best_selected>  (261) 
1.4461318969465244

>  <MWT>  (261) 
378.4639999999997

>  <TPSA>  (261) 
110.17999999999999

>  <logP>  (261) 
0.4535000000000009

>  <HBD>  (261) 
3

>  <HBA>  (261) 
8

>  <SMILES>  (261) 
[H]c1nc(N2C([H])([H])C([H])([H])[N+]([H])(C([H])(c3nc(N([H])[H])nc(N([H])c4c([H])c([H])c([H])c([H])c4[H])n3)C([H])([H])[H])C([H])([H])C2([H])[H])nc([H])c1[H]

$$$$
Z195569274_pose7
     RDKit          3D

 52 55  0  0  0  0  0  0  0  0999 V2000
    3.1532   47.9967   55.0425 C   0  0  0  0  0  0  0  0  0  0  0  0
    3.6151   46.7121   54.3506 C   0  0  0  0  0  0  0  0  0  0  0  0
    5.1298   46.7595   54.1461 C   0  0  0  0  0  0  0  0  0  0  0  0
    5.8910   46.9700   55.2188 N   0  0  0  0  0  0  0  0  0  0  0  0
    7.1914   46.8592   55.0034 C   0  0  0  0  0  0  0  0  0  0  0  0
    8.0336   47.0847   56.0672 N   0  0  0  0  0  0  0  0  0  0  0  0
    7.7408   46.5296   53.8463 N   0  0  0  0  0  0  0  0  0  0  0  0
    6.9076   46.2839   52.8393 C   0  0  0  0  0  0  0  0  0  0  0  0
    7.5013   45.8784   51.6494 N   0  0  0  0  0  0  0  0  0  0  0  0
    7.2432   44.8494   50.7342 C   0  0  0  0  0  0  0  0  0  0  0  0
    6.4103   43.7917   51.1347 C   0  0  0  0  0  0  0  0  0  0  0  0
    6.0999   42.7372   50.2699 C   0  0  0  0  0  0  0  0  0  0  0  0
    6.6236   42.7194   48.9817 C   0  0  0  0  0  0  0  0  0  0  0  0
    7.4527   43.7550   48.5628 C   0  0  0  0  0  0  0  0  0  0  0  0
    7.7568   44.8089   49.4317 C   0  0  0  0  0  0  0  0  0  0  0  0
    5.5890   46.3752   52.9592 N   0  0  0  0  0  0  0  0  0  0  0  0
    3.1802   45.4791   55.1894 N   0  0  0  0  0  4  0  0  0  0  0  0
    1.6887   45.2107   55.2299 C   0  0  0  0  0  0  0  0  0  0  0  0
    1.1264   44.7663   53.8614 C   0  0  0  0  0  0  0  0  0  0  0  0
    2.1736   44.4046   52.9038 N   0  0  0  0  0  0  0  0  0  0  0  0
    1.7192   44.0368   51.6400 C   0  0  0  0  0  0  0  0  0  0  0  0
    2.6223   43.7468   50.6916 N   0  0  0  0  0  0  0  0  0  0  0  0
    2.1615   43.4149   49.4682 C   0  0  0  0  0  0  0  0  0  0  0  0
    0.8295   43.3657   49.1505 C   0  0  0  0  0  0  0  0  0  0  0  0
   -0.0217   43.6812   50.1780 C   0  0  0  0  0  0  0  0  0  0  0  0
    0.3965   44.0168   51.4155 N   0  0  0  0  0  0  0  0  0  0  0  0
    3.3914   43.7195   53.3478 C   0  0  0  0  0  0  0  0  0  0  0  0
    3.8671   44.1882   54.7396 C   0  0  0  0  0  0  0  0  0  0  0  0
    2.5917   47.7412   55.9532 H   0  0  0  0  0  0  0  0  0  0  0  0
    4.0301   48.6044   55.3107 H   0  0  0  0  0  0  0  0  0  0  0  0
    2.5060   48.5680   54.3608 H   0  0  0  0  0  0  0  0  0  0  0  0
    3.1436   46.6238   53.3606 H   0  0  0  0  0  0  0  0  0  0  0  0
    7.5134   47.2019   56.9282 H   0  0  0  0  0  0  0  0  0  0  0  0
    8.8055   46.4338   56.0965 H   0  0  0  0  0  0  0  0  0  0  0  0
    8.3071   46.4573   51.4521 H   0  0  0  0  0  0  0  0  0  0  0  0
    5.9924   43.7928   52.1523 H   0  0  0  0  0  0  0  0  0  0  0  0
    5.4423   41.9229   50.6083 H   0  0  0  0  0  0  0  0  0  0  0  0
    6.3838   41.8915   48.2983 H   0  0  0  0  0  0  0  0  0  0  0  0
    7.8706   43.7453   47.5453 H   0  0  0  0  0  0  0  0  0  0  0  0
    8.4121   45.6216   49.0850 H   0  0  0  0  0  0  0  0  0  0  0  0
    3.5150   45.6764   56.1417 H   0  0  0  0  0  0  0  0  0  0  0  0
    1.4937   44.4162   55.9653 H   0  0  0  0  0  0  0  0  0  0  0  0
    1.1888   46.1510   55.5053 H   0  0  0  0  0  0  0  0  0  0  0  0
    0.4760   43.8929   54.0163 H   0  0  0  0  0  0  0  0  0  0  0  0
    0.5744   45.6191   53.4394 H   0  0  0  0  0  0  0  0  0  0  0  0
    2.8935   43.1709   48.6842 H   0  0  0  0  0  0  0  0  0  0  0  0
    0.4703   43.0936   48.1471 H   0  0  0  0  0  0  0  0  0  0  0  0
   -1.1040   43.6595   49.9824 H   0  0  0  0  0  0  0  0  0  0  0  0
    3.1911   42.6387   53.3903 H   0  0  0  0  0  0  0  0  0  0  0  0
    4.1876   43.9586   52.6275 H   0  0  0  0  0  0  0  0  0  0  0  0
    3.6472   43.3977   55.4723 H   0  0  0  0  0  0  0  0  0  0  0  0
    4.9465   44.3894   54.6736 H   0  0  0  0  0  0  0  0  0  0  0  0
  1  2  1  0
  2  3  1  0
  3  4  2  0
  4  5  1  0
  5  6  1  0
  5  7  2  0
  7  8  1  0
  8  9  1  0
  9 10  1  0
 10 11  2  0
 11 12  1  0
 12 13  2  0
 13 14  1  0
 14 15  2  0
  8 16  2  0
  2 17  1  0
 17 18  1  0
 18 19  1  0
 19 20  1  0
 20 21  1  0
 21 22  2  0
 22 23  1  0
 23 24  2  0
 24 25  1  0
 25 26  2  0
 20 27  1  0
 27 28  1  0
 16  3  1  0
 28 17  1  0
 15 10  1  0
 26 21  1  0
  1 29  1  0
  1 30  1  0
  1 31  1  0
  2 32  1  0
  6 33  1  0
  6 34  1  0
  9 35  1  0
 11 36  1  0
 12 37  1  0
 13 38  1  0
 14 39  1  0
 15 40  1  0
 17 41  1  0
 18 42  1  0
 18 43  1  0
 19 44  1  0
 19 45  1  0
 23 46  1  0
 24 47  1  0
 25 48  1  0
 27 49  1  0
 27 50  1  0
 28 51  1  0
 28 52  1  0
M  CHG  1  17   1
M  END
>  <meeko>  (262) 
{"is_sidechain": false}

>  <CID>  (262) 
Z195569274

>  <pose_index>  (262) 
7

>  <docking_score>  (262) 
-7.985

>  <rmsd_to_best_selected>  (262) 
1.7233025727477138

>  <MWT>  (262) 
378.4639999999997

>  <TPSA>  (262) 
110.17999999999999

>  <logP>  (262) 
0.4535000000000009

>  <HBD>  (262) 
3

>  <HBA>  (262) 
8

>  <SMILES>  (262) 
[H]c1nc(N2C([H])([H])C([H])([H])[N+]([H])(C([H])(c3nc(N([H])[H])nc(N([H])c4c([H])c([H])c([H])c([H])c4[H])n3)C([H])([H])[H])C([H])([H])C2([H])[H])nc([H])c1[H]

$$$$
Z195569274_pose9
     RDKit          3D

 52 55  0  0  0  0  0  0  0  0999 V2000
    2.8531   48.1304   54.2056 C   0  0  0  0  0  0  0  0  0  0  0  0
    3.5623   46.8412   53.7807 C   0  0  0  0  0  0  0  0  0  0  0  0
    5.0415   47.1337   53.5261 C   0  0  0  0  0  0  0  0  0  0  0  0
    5.6719   47.9272   54.3905 N   0  0  0  0  0  0  0  0  0  0  0  0
    6.9775   48.0273   54.1976 C   0  0  0  0  0  0  0  0  0  0  0  0
    7.6837   48.8486   55.0449 N   0  0  0  0  0  0  0  0  0  0  0  0
    7.6548   47.3832   53.2618 N   0  0  0  0  0  0  0  0  0  0  0  0
    6.9584   46.5698   52.4734 C   0  0  0  0  0  0  0  0  0  0  0  0
    7.6966   45.8544   51.5390 N   0  0  0  0  0  0  0  0  0  0  0  0
    7.5977   44.5648   50.9988 C   0  0  0  0  0  0  0  0  0  0  0  0
    6.7457   43.6408   51.6283 C   0  0  0  0  0  0  0  0  0  0  0  0
    6.5902   42.3407   51.1382 C   0  0  0  0  0  0  0  0  0  0  0  0
    7.2881   41.9364   50.0055 C   0  0  0  0  0  0  0  0  0  0  0  0
    8.1396   42.8329   49.3675 C   0  0  0  0  0  0  0  0  0  0  0  0
    8.2900   44.1347   49.8613 C   0  0  0  0  0  0  0  0  0  0  0  0
    5.6452   46.4095   52.5886 N   0  0  0  0  0  0  0  0  0  0  0  0
    3.3655   45.7518   54.8707 N   0  0  0  0  0  4  0  0  0  0  0  0
    1.9250   45.4332   55.2208 C   0  0  0  0  0  0  0  0  0  0  0  0
    1.1697   44.7412   54.0654 C   0  0  0  0  0  0  0  0  0  0  0  0
    2.0608   44.2653   53.0045 N   0  0  0  0  0  0  0  0  0  0  0  0
    1.4240   43.6702   51.9186 C   0  0  0  0  0  0  0  0  0  0  0  0
    0.1128   43.8959   51.7398 N   0  0  0  0  0  0  0  0  0  0  0  0
   -0.4890   43.2918   50.6944 C   0  0  0  0  0  0  0  0  0  0  0  0
    0.1647   42.4625   49.8221 C   0  0  0  0  0  0  0  0  0  0  0  0
    1.4991   42.2851   50.0829 C   0  0  0  0  0  0  0  0  0  0  0  0
    2.1404   42.8716   51.1137 N   0  0  0  0  0  0  0  0  0  0  0  0
    3.3812   43.7152   53.3250 C   0  0  0  0  0  0  0  0  0  0  0  0
    4.0539   44.4323   54.5160 C   0  0  0  0  0  0  0  0  0  0  0  0
    2.5154   48.0365   55.2482 H   0  0  0  0  0  0  0  0  0  0  0  0
    3.5499   48.9773   54.1207 H   0  0  0  0  0  0  0  0  0  0  0  0
    1.9847   48.3033   53.5529 H   0  0  0  0  0  0  0  0  0  0  0  0
    3.1276   46.4592   52.8452 H   0  0  0  0  0  0  0  0  0  0  0  0
    8.1509   49.5877   54.5353 H   0  0  0  0  0  0  0  0  0  0  0  0
    7.1436   49.1320   55.8497 H   0  0  0  0  0  0  0  0  0  0  0  0
    8.4840   46.4076   51.2261 H   0  0  0  0  0  0  0  0  0  0  0  0
    6.1891   43.9473   52.5262 H   0  0  0  0  0  0  0  0  0  0  0  0
    5.9157   41.6375   51.6487 H   0  0  0  0  0  0  0  0  0  0  0  0
    7.1677   40.9146   49.6163 H   0  0  0  0  0  0  0  0  0  0  0  0
    8.6965   42.5182   48.4726 H   0  0  0  0  0  0  0  0  0  0  0  0
    8.9654   44.8327   49.3449 H   0  0  0  0  0  0  0  0  0  0  0  0
    3.8427   46.1209   55.7028 H   0  0  0  0  0  0  0  0  0  0  0  0
    1.9146   44.7677   56.0965 H   0  0  0  0  0  0  0  0  0  0  0  0
    1.4150   46.3857   55.4275 H   0  0  0  0  0  0  0  0  0  0  0  0
    0.6182   43.8808   54.4725 H   0  0  0  0  0  0  0  0  0  0  0  0
    0.4950   45.4868   53.6194 H   0  0  0  0  0  0  0  0  0  0  0  0
   -1.5617   43.4749   50.5341 H   0  0  0  0  0  0  0  0  0  0  0  0
   -0.3425   41.9756   48.9762 H   0  0  0  0  0  0  0  0  0  0  0  0
    2.0773   41.6293   49.4154 H   0  0  0  0  0  0  0  0  0  0  0  0
    3.2672   42.6500   53.5748 H   0  0  0  0  0  0  0  0  0  0  0  0
    4.0239   43.8607   52.4442 H   0  0  0  0  0  0  0  0  0  0  0  0
    4.0183   43.7690   55.3928 H   0  0  0  0  0  0  0  0  0  0  0  0
    5.0893   44.6633   54.2252 H   0  0  0  0  0  0  0  0  0  0  0  0
  1  2  1  0
  2  3  1  0
  3  4  2  0
  4  5  1  0
  5  6  1  0
  5  7  2  0
  7  8  1  0
  8  9  1  0
  9 10  1  0
 10 11  2  0
 11 12  1  0
 12 13  2  0
 13 14  1  0
 14 15  2  0
  8 16  2  0
  2 17  1  0
 17 18  1  0
 18 19  1  0
 19 20  1  0
 20 21  1  0
 21 22  2  0
 22 23  1  0
 23 24  2  0
 24 25  1  0
 25 26  2  0
 20 27  1  0
 27 28  1  0
 16  3  1  0
 28 17  1  0
 15 10  1  0
 26 21  1  0
  1 29  1  0
  1 30  1  0
  1 31  1  0
  2 32  1  0
  6 33  1  0
  6 34  1  0
  9 35  1  0
 11 36  1  0
 12 37  1  0
 13 38  1  0
 14 39  1  0
 15 40  1  0
 17 41  1  0
 18 42  1  0
 18 43  1  0
 19 44  1  0
 19 45  1  0
 23 46  1  0
 24 47  1  0
 25 48  1  0
 27 49  1  0
 27 50  1  0
 28 51  1  0
 28 52  1  0
M  CHG  1  17   1
M  END
>  <meeko>  (263) 
{"is_sidechain": false}

>  <CID>  (263) 
Z195569274

>  <pose_index>  (263) 
9

>  <docking_score>  (263) 
-7.872

>  <rmsd_to_best_selected>  (263) 
1.496645394145386

>  <MWT>  (263) 
378.4639999999997

>  <TPSA>  (263) 
110.17999999999999

>  <logP>  (263) 
0.4535000000000009

>  <HBD>  (263) 
3

>  <HBA>  (263) 
8

>  <SMILES>  (263) 
[H]c1nc(N2C([H])([H])C([H])([H])[N+]([H])(C([H])(c3nc(N([H])[H])nc(N([H])c4c([H])c([H])c([H])c([H])c4[H])n3)C([H])([H])[H])C([H])([H])C2([H])[H])nc([H])c1[H]

$$$$
Z195569274_pose10
     RDKit          3D

 52 55  0  0  0  0  0  0  0  0999 V2000
    2.7715   47.7849   53.7567 C   0  0  0  0  0  0  0  0  0  0  0  0
    3.6066   46.5440   53.4262 C   0  0  0  0  0  0  0  0  0  0  0  0
    5.0750   46.9429   53.2806 C   0  0  0  0  0  0  0  0  0  0  0  0
    5.6028   47.7131   54.2307 N   0  0  0  0  0  0  0  0  0  0  0  0
    6.9088   47.9053   54.1241 C   0  0  0  0  0  0  0  0  0  0  0  0
    7.5109   48.7078   55.0640 N   0  0  0  0  0  0  0  0  0  0  0  0
    7.6781   47.3690   53.1921 N   0  0  0  0  0  0  0  0  0  0  0  0
    7.0811   46.5706   52.3117 C   0  0  0  0  0  0  0  0  0  0  0  0
    7.9158   45.9673   51.3791 N   0  0  0  0  0  0  0  0  0  0  0  0
    8.2908   44.6418   51.1212 C   0  0  0  0  0  0  0  0  0  0  0  0
    8.9214   43.9140   52.1453 C   0  0  0  0  0  0  0  0  0  0  0  0
    9.3124   42.5844   51.9621 C   0  0  0  0  0  0  0  0  0  0  0  0
    9.0832   41.9542   50.7435 C   0  0  0  0  0  0  0  0  0  0  0  0
    8.4629   42.6556   49.7143 C   0  0  0  0  0  0  0  0  0  0  0  0
    8.0703   43.9852   49.9041 C   0  0  0  0  0  0  0  0  0  0  0  0
    5.7765   46.3226   52.3364 N   0  0  0  0  0  0  0  0  0  0  0  0
    3.4031   45.4675   54.5273 N   0  0  0  0  0  4  0  0  0  0  0  0
    2.0128   45.4030   55.1277 C   0  0  0  0  0  0  0  0  0  0  0  0
    0.9520   44.9044   54.1214 C   0  0  0  0  0  0  0  0  0  0  0  0
    1.5402   44.3169   52.9156 N   0  0  0  0  0  0  0  0  0  0  0  0
    0.6241   43.8895   51.9581 C   0  0  0  0  0  0  0  0  0  0  0  0
    1.0448   43.7271   50.6936 N   0  0  0  0  0  0  0  0  0  0  0  0
    0.1368   43.3346   49.7766 C   0  0  0  0  0  0  0  0  0  0  0  0
   -1.1816   43.1038   50.0701 C   0  0  0  0  0  0  0  0  0  0  0  0
   -1.5246   43.2987   51.3835 C   0  0  0  0  0  0  0  0  0  0  0  0
   -0.6486   43.6879   52.3315 N   0  0  0  0  0  0  0  0  0  0  0  0
    2.7707   43.5235   52.9927 C   0  0  0  0  0  0  0  0  0  0  0  0
    3.7623   44.0589   54.0480 C   0  0  0  0  0  0  0  0  0  0  0  0
    3.4303   48.5797   54.1366 H   0  0  0  0  0  0  0  0  0  0  0  0
    2.2602   48.1355   52.8480 H   0  0  0  0  0  0  0  0  0  0  0  0
    2.0243   47.5306   54.5229 H   0  0  0  0  0  0  0  0  0  0  0  0
    3.2789   46.1086   52.4706 H   0  0  0  0  0  0  0  0  0  0  0  0
    7.2668   49.6813   54.9271 H   0  0  0  0  0  0  0  0  0  0  0  0
    7.4098   48.3489   56.0032 H   0  0  0  0  0  0  0  0  0  0  0  0
    8.3499   46.6733   50.7989 H   0  0  0  0  0  0  0  0  0  0  0  0
    9.1114   44.4017   53.1128 H   0  0  0  0  0  0  0  0  0  0  0  0
    9.8011   42.0367   52.7813 H   0  0  0  0  0  0  0  0  0  0  0  0
    9.3903   40.9085   50.5944 H   0  0  0  0  0  0  0  0  0  0  0  0
    8.2803   42.1630   48.7479 H   0  0  0  0  0  0  0  0  0  0  0  0
    7.5789   44.5251   49.0812 H   0  0  0  0  0  0  0  0  0  0  0  0
    4.0785   45.7111   55.2634 H   0  0  0  0  0  0  0  0  0  0  0  0
    2.0322   44.7171   55.9875 H   0  0  0  0  0  0  0  0  0  0  0  0
    1.7326   46.4235   55.4279 H   0  0  0  0  0  0  0  0  0  0  0  0
    0.3306   44.1429   54.6153 H   0  0  0  0  0  0  0  0  0  0  0  0
    0.3597   45.7766   53.8078 H   0  0  0  0  0  0  0  0  0  0  0  0
    0.4724   43.1924   48.7388 H   0  0  0  0  0  0  0  0  0  0  0  0
   -1.9100   42.7861   49.3095 H   0  0  0  0  0  0  0  0  0  0  0  0
   -2.5703   43.1284   51.6793 H   0  0  0  0  0  0  0  0  0  0  0  0
    2.5056   42.4882   53.2529 H   0  0  0  0  0  0  0  0  0  0  0  0
    3.2658   43.5838   52.0123 H   0  0  0  0  0  0  0  0  0  0  0  0
    3.7575   43.3798   54.9133 H   0  0  0  0  0  0  0  0  0  0  0  0
    4.7559   44.1085   53.5787 H   0  0  0  0  0  0  0  0  0  0  0  0
  1  2  1  0
  2  3  1  0
  3  4  2  0
  4  5  1  0
  5  6  1  0
  5  7  2  0
  7  8  1  0
  8  9  1  0
  9 10  1  0
 10 11  2  0
 11 12  1  0
 12 13  2  0
 13 14  1  0
 14 15  2  0
  8 16  2  0
  2 17  1  0
 17 18  1  0
 18 19  1  0
 19 20  1  0
 20 21  1  0
 21 22  2  0
 22 23  1  0
 23 24  2  0
 24 25  1  0
 25 26  2  0
 20 27  1  0
 27 28  1  0
 16  3  1  0
 28 17  1  0
 15 10  1  0
 26 21  1  0
  1 29  1  0
  1 30  1  0
  1 31  1  0
  2 32  1  0
  6 33  1  0
  6 34  1  0
  9 35  1  0
 11 36  1  0
 12 37  1  0
 13 38  1  0
 14 39  1  0
 15 40  1  0
 17 41  1  0
 18 42  1  0
 18 43  1  0
 19 44  1  0
 19 45  1  0
 23 46  1  0
 24 47  1  0
 25 48  1  0
 27 49  1  0
 27 50  1  0
 28 51  1  0
 28 52  1  0
M  CHG  1  17   1
M  END
>  <meeko>  (264) 
{"is_sidechain": false}

>  <CID>  (264) 
Z195569274

>  <pose_index>  (264) 
10

>  <docking_score>  (264) 
-7.814

>  <rmsd_to_best_selected>  (264) 
1.4176089660802622

>  <MWT>  (264) 
378.4639999999997

>  <TPSA>  (264) 
110.17999999999999

>  <logP>  (264) 
0.4535000000000009

>  <HBD>  (264) 
3

>  <HBA>  (264) 
8

>  <SMILES>  (264) 
[H]c1nc(N2C([H])([H])C([H])([H])[N+]([H])(C([H])(c3nc(N([H])[H])nc(N([H])c4c([H])c([H])c([H])c([H])c4[H])n3)C([H])([H])[H])C([H])([H])C2([H])[H])nc([H])c1[H]

$$$$
Z195980060_pose4
     RDKit          3D

 42 44  0  0  0  0  0  0  0  0999 V2000
    4.5636   44.0658   51.2924 C   0  0  0  0  0  0  0  0  0  0  0  0
    3.6683   43.2645   52.0692 O   0  0  0  0  0  0  0  0  0  0  0  0
    3.3956   43.7665   53.2936 C   0  0  0  0  0  0  0  0  0  0  0  0
    3.8636   43.3934   54.3675 O   0  0  0  0  0  0  0  0  0  0  0  0
    2.3905   44.9213   53.2409 C   0  0  0  0  0  0  0  0  0  0  0  0
    0.9830   44.3991   53.5275 C   0  0  0  0  0  0  0  0  0  0  0  0
   -0.0522   45.5186   53.5668 C   0  0  0  0  0  0  0  0  0  0  0  0
    0.4375   46.7692   54.2958 C   0  0  0  0  0  0  0  0  0  0  0  0
    1.6480   46.4885   55.1667 C   0  0  0  0  0  0  0  0  0  0  0  0
    2.7867   45.9895   54.3214 N   0  0  0  0  0  4  0  0  0  0  0  0
    3.6511   47.1192   53.7486 C   0  0  0  0  0  0  0  0  0  0  0  0
    5.1283   46.7444   53.6511 C   0  0  0  0  0  0  0  0  0  0  0  0
    5.7706   46.9849   52.5532 N   0  0  0  0  0  0  0  0  0  0  0  0
    7.1205   46.5903   52.4797 C   0  0  0  0  0  0  0  0  0  0  0  0
    7.8366   46.8477   51.3093 C   0  0  0  0  0  0  0  0  0  0  0  0
    9.1743   46.4565   51.1986 C   0  0  0  0  0  0  0  0  0  0  0  0
    9.8074   45.8049   52.2582 C   0  0  0  0  0  0  0  0  0  0  0  0
    9.1065   45.5436   53.4332 C   0  0  0  0  0  0  0  0  0  0  0  0
    7.7706   45.9385   53.5335 C   0  0  0  0  0  0  0  0  0  0  0  0
    6.9904   45.6846   54.7534 C   0  0  0  0  0  0  0  0  0  0  0  0
    7.4541   45.1282   55.7381 O   0  0  0  0  0  0  0  0  0  0  0  0
    5.6852   46.1149   54.7289 N   0  0  0  0  0  0  0  0  0  0  0  0
    4.0040   44.5667   50.4887 H   0  0  0  0  0  0  0  0  0  0  0  0
    5.0333   44.8221   51.9385 H   0  0  0  0  0  0  0  0  0  0  0  0
    5.3419   43.4247   50.8527 H   0  0  0  0  0  0  0  0  0  0  0  0
    2.4041   45.3779   52.2403 H   0  0  0  0  0  0  0  0  0  0  0  0
    0.7028   43.6856   52.7385 H   0  0  0  0  0  0  0  0  0  0  0  0
    0.9970   43.9184   54.5168 H   0  0  0  0  0  0  0  0  0  0  0  0
   -0.3076   45.7945   52.5331 H   0  0  0  0  0  0  0  0  0  0  0  0
   -0.9227   45.1381   54.1213 H   0  0  0  0  0  0  0  0  0  0  0  0
    0.7070   47.5312   53.5497 H   0  0  0  0  0  0  0  0  0  0  0  0
   -0.3751   47.1186   54.9497 H   0  0  0  0  0  0  0  0  0  0  0  0
    1.9519   47.4144   55.6769 H   0  0  0  0  0  0  0  0  0  0  0  0
    1.3871   45.7206   55.9098 H   0  0  0  0  0  0  0  0  0  0  0  0
    3.4165   45.4582   54.9509 H   0  0  0  0  0  0  0  0  0  0  0  0
    3.2841   47.3661   52.7415 H   0  0  0  0  0  0  0  0  0  0  0  0
    3.5719   47.9760   54.4339 H   0  0  0  0  0  0  0  0  0  0  0  0
    7.3457   47.3613   50.4695 H   0  0  0  0  0  0  0  0  0  0  0  0
    9.7303   46.6630   50.2722 H   0  0  0  0  0  0  0  0  0  0  0  0
   10.8596   45.4980   52.1655 H   0  0  0  0  0  0  0  0  0  0  0  0
    9.5996   45.0318   54.2727 H   0  0  0  0  0  0  0  0  0  0  0  0
    5.1876   45.9371   55.5922 H   0  0  0  0  0  0  0  0  0  0  0  0
  1  2  1  0
  2  3  1  0
  3  4  2  0
  3  5  1  0
  5  6  1  0
  6  7  1  0
  7  8  1  0
  8  9  1  0
  9 10  1  0
 10 11  1  0
 11 12  1  0
 12 13  2  0
 13 14  1  0
 14 15  2  0
 15 16  1  0
 16 17  2  0
 17 18  1  0
 18 19  2  0
 19 20  1  0
 20 21  2  0
 20 22  1  0
 10  5  1  0
 22 12  1  0
 19 14  1  0
  1 23  1  0
  1 24  1  0
  1 25  1  0
  5 26  1  0
  6 27  1  0
  6 28  1  0
  7 29  1  0
  7 30  1  0
  8 31  1  0
  8 32  1  0
  9 33  1  0
  9 34  1  0
 10 35  1  0
 11 36  1  0
 11 37  1  0
 15 38  1  0
 16 39  1  0
 17 40  1  0
 18 41  1  0
 22 42  1  0
M  CHG  1  10   1
M  END
>  <meeko>  (265) 
{"is_sidechain": false}

>  <CID>  (265) 
Z195980060

>  <pose_index>  (265) 
4

>  <docking_score>  (265) 
-8.183

>  <rmsd_to_best_selected>  (265) 
0.0

>  <MWT>  (265) 
302.3539999999996

>  <TPSA>  (265) 
76.49000000000001

>  <logP>  (265) 
0.033500000000000585

>  <HBD>  (265) 
2

>  <HBA>  (265) 
4

>  <SMILES>  (265) 
[H]c1c([H])c([H])c2c(=O)n([H])c(C([H])([H])[N+]3([H])C([H])([H])C([H])([H])C([H])([H])C([H])([H])C3([H])C(=O)OC([H])([H])[H])nc2c1[H]

$$$$
Z195980060_pose5
     RDKit          3D

 42 44  0  0  0  0  0  0  0  0999 V2000
    4.3108   44.2350   50.3263 C   0  0  0  0  0  0  0  0  0  0  0  0
    3.0067   44.7031   50.6849 O   0  0  0  0  0  0  0  0  0  0  0  0
    2.5019   44.1363   51.8030 C   0  0  0  0  0  0  0  0  0  0  0  0
    2.5379   42.9461   52.1090 O   0  0  0  0  0  0  0  0  0  0  0  0
    1.8375   45.1598   52.7285 C   0  0  0  0  0  0  0  0  0  0  0  0
    0.6520   44.5175   53.4471 C   0  0  0  0  0  0  0  0  0  0  0  0
   -0.0026   45.4681   54.4442 C   0  0  0  0  0  0  0  0  0  0  0  0
    1.0046   46.2799   55.2570 C   0  0  0  0  0  0  0  0  0  0  0  0
    2.3988   45.6826   55.2036 C   0  0  0  0  0  0  0  0  0  0  0  0
    2.8916   45.6510   53.7838 N   0  0  0  0  0  4  0  0  0  0  0  0
    3.5958   46.9437   53.3609 C   0  0  0  0  0  0  0  0  0  0  0  0
    5.1149   46.8623   53.4867 C   0  0  0  0  0  0  0  0  0  0  0  0
    5.7835   46.1543   52.6346 N   0  0  0  0  0  0  0  0  0  0  0  0
    7.1793   46.0655   52.8020 C   0  0  0  0  0  0  0  0  0  0  0  0
    7.9226   45.3156   51.8897 C   0  0  0  0  0  0  0  0  0  0  0  0
    9.3081   45.1940   52.0356 C   0  0  0  0  0  0  0  0  0  0  0  0
    9.9622   45.8243   53.0954 C   0  0  0  0  0  0  0  0  0  0  0  0
    9.2338   46.5776   54.0138 C   0  0  0  0  0  0  0  0  0  0  0  0
    7.8505   46.6909   53.8580 C   0  0  0  0  0  0  0  0  0  0  0  0
    7.0389   47.4762   54.8020 C   0  0  0  0  0  0  0  0  0  0  0  0
    7.5162   48.0704   55.7575 O   0  0  0  0  0  0  0  0  0  0  0  0
    5.6896   47.5085   54.5469 N   0  0  0  0  0  0  0  0  0  0  0  0
    4.8939   44.0398   51.2384 H   0  0  0  0  0  0  0  0  0  0  0  0
    4.2197   43.3066   49.7436 H   0  0  0  0  0  0  0  0  0  0  0  0
    4.8211   44.9991   49.7214 H   0  0  0  0  0  0  0  0  0  0  0  0
    1.4754   46.0133   52.1365 H   0  0  0  0  0  0  0  0  0  0  0  0
   -0.0966   44.2194   52.6983 H   0  0  0  0  0  0  0  0  0  0  0  0
    1.0277   43.6482   54.0067 H   0  0  0  0  0  0  0  0  0  0  0  0
   -0.6471   46.1661   53.8897 H   0  0  0  0  0  0  0  0  0  0  0  0
   -0.5732   44.8521   55.1548 H   0  0  0  0  0  0  0  0  0  0  0  0
    1.0418   47.3030   54.8547 H   0  0  0  0  0  0  0  0  0  0  0  0
    0.6747   46.2740   56.3064 H   0  0  0  0  0  0  0  0  0  0  0  0
    3.0807   46.2948   55.8121 H   0  0  0  0  0  0  0  0  0  0  0  0
    2.3667   44.6560   55.5972 H   0  0  0  0  0  0  0  0  0  0  0  0
    3.6234   44.9158   53.7384 H   0  0  0  0  0  0  0  0  0  0  0  0
    3.3415   47.1546   52.3116 H   0  0  0  0  0  0  0  0  0  0  0  0
    3.2515   47.7423   54.0345 H   0  0  0  0  0  0  0  0  0  0  0  0
    7.4155   44.8170   51.0505 H   0  0  0  0  0  0  0  0  0  0  0  0
    9.8848   44.5991   51.3121 H   0  0  0  0  0  0  0  0  0  0  0  0
   11.0523   45.7264   53.2055 H   0  0  0  0  0  0  0  0  0  0  0  0
    9.7422   47.0772   54.8516 H   0  0  0  0  0  0  0  0  0  0  0  0
    5.1687   48.0707   55.2073 H   0  0  0  0  0  0  0  0  0  0  0  0
  1  2  1  0
  2  3  1  0
  3  4  2  0
  3  5  1  0
  5  6  1  0
  6  7  1  0
  7  8  1  0
  8  9  1  0
  9 10  1  0
 10 11  1  0
 11 12  1  0
 12 13  2  0
 13 14  1  0
 14 15  2  0
 15 16  1  0
 16 17  2  0
 17 18  1  0
 18 19  2  0
 19 20  1  0
 20 21  2  0
 20 22  1  0
 10  5  1  0
 22 12  1  0
 19 14  1  0
  1 23  1  0
  1 24  1  0
  1 25  1  0
  5 26  1  0
  6 27  1  0
  6 28  1  0
  7 29  1  0
  7 30  1  0
  8 31  1  0
  8 32  1  0
  9 33  1  0
  9 34  1  0
 10 35  1  0
 11 36  1  0
 11 37  1  0
 15 38  1  0
 16 39  1  0
 17 40  1  0
 18 41  1  0
 22 42  1  0
M  CHG  1  10   1
M  END
>  <meeko>  (266) 
{"is_sidechain": false}

>  <CID>  (266) 
Z195980060

>  <pose_index>  (266) 
5

>  <docking_score>  (266) 
-8.094

>  <rmsd_to_best_selected>  (266) 
1.4595530570486173

>  <MWT>  (266) 
302.3539999999996

>  <TPSA>  (266) 
76.49000000000001

>  <logP>  (266) 
0.033500000000000585

>  <HBD>  (266) 
2

>  <HBA>  (266) 
4

>  <SMILES>  (266) 
[H]c1c([H])c([H])c2c(=O)n([H])c(C([H])([H])[N+]3([H])C([H])([H])C([H])([H])C([H])([H])C([H])([H])C3([H])C(=O)OC([H])([H])[H])nc2c1[H]

$$$$
Z195980060_pose7
     RDKit          3D

 42 44  0  0  0  0  0  0  0  0999 V2000
    4.3212   44.1873   50.4525 C   0  0  0  0  0  0  0  0  0  0  0  0
    3.5243   44.2303   51.6408 O   0  0  0  0  0  0  0  0  0  0  0  0
    2.2702   44.6952   51.4501 C   0  0  0  0  0  0  0  0  0  0  0  0
    1.5791   44.5683   50.4410 O   0  0  0  0  0  0  0  0  0  0  0  0
    1.7310   45.4407   52.6748 C   0  0  0  0  0  0  0  0  0  0  0  0
    0.5782   44.6544   53.2966 C   0  0  0  0  0  0  0  0  0  0  0  0
    0.0512   45.3098   54.5686 C   0  0  0  0  0  0  0  0  0  0  0  0
    1.1581   45.8441   55.4764 C   0  0  0  0  0  0  0  0  0  0  0  0
    2.5137   45.2519   55.1382 C   0  0  0  0  0  0  0  0  0  0  0  0
    2.8891   45.5981   53.7240 N   0  0  0  0  0  4  0  0  0  0  0  0
    3.6167   46.9421   53.6050 C   0  0  0  0  0  0  0  0  0  0  0  0
    5.1344   46.8045   53.6925 C   0  0  0  0  0  0  0  0  0  0  0  0
    5.8150   46.5978   52.6095 N   0  0  0  0  0  0  0  0  0  0  0  0
    7.2079   46.4341   52.7278 C   0  0  0  0  0  0  0  0  0  0  0  0
    7.9637   46.2208   51.5731 C   0  0  0  0  0  0  0  0  0  0  0  0
    9.3466   46.0398   51.6565 C   0  0  0  0  0  0  0  0  0  0  0  0
    9.9881   46.0730   52.8962 C   0  0  0  0  0  0  0  0  0  0  0  0
    9.2488   46.2873   54.0571 C   0  0  0  0  0  0  0  0  0  0  0  0
    7.8667   46.4664   53.9613 C   0  0  0  0  0  0  0  0  0  0  0  0
    7.0433   46.6968   55.1591 C   0  0  0  0  0  0  0  0  0  0  0  0
    7.5091   46.7501   56.2883 O   0  0  0  0  0  0  0  0  0  0  0  0
    5.6963   46.8527   54.9383 N   0  0  0  0  0  0  0  0  0  0  0  0
    5.1846   43.5251   50.6138 H   0  0  0  0  0  0  0  0  0  0  0  0
    3.7154   43.8034   49.6185 H   0  0  0  0  0  0  0  0  0  0  0  0
    4.6760   45.2004   50.2120 H   0  0  0  0  0  0  0  0  0  0  0  0
    1.3627   46.4319   52.3717 H   0  0  0  0  0  0  0  0  0  0  0  0
   -0.2414   44.5904   52.5658 H   0  0  0  0  0  0  0  0  0  0  0  0
    0.9566   43.6566   53.5638 H   0  0  0  0  0  0  0  0  0  0  0  0
   -0.6024   46.1478   54.2846 H   0  0  0  0  0  0  0  0  0  0  0  0
   -0.4890   44.5363   55.1341 H   0  0  0  0  0  0  0  0  0  0  0  0
    1.2113   46.9371   55.3643 H   0  0  0  0  0  0  0  0  0  0  0  0
    0.9137   45.5587   56.5102 H   0  0  0  0  0  0  0  0  0  0  0  0
    3.2703   45.6582   55.8256 H   0  0  0  0  0  0  0  0  0  0  0  0
    2.4650   44.1577   55.2407 H   0  0  0  0  0  0  0  0  0  0  0  0
    3.5790   44.8878   53.4150 H   0  0  0  0  0  0  0  0  0  0  0  0
    3.3604   47.3956   52.6362 H   0  0  0  0  0  0  0  0  0  0  0  0
    3.2924   47.5694   54.4485 H   0  0  0  0  0  0  0  0  0  0  0  0
    7.4672   46.1952   50.5918 H   0  0  0  0  0  0  0  0  0  0  0  0
    9.9327   45.8703   50.7412 H   0  0  0  0  0  0  0  0  0  0  0  0
   11.0772   45.9299   52.9561 H   0  0  0  0  0  0  0  0  0  0  0  0
    9.7471   46.3152   55.0373 H   0  0  0  0  0  0  0  0  0  0  0  0
    5.1678   47.0257   55.7831 H   0  0  0  0  0  0  0  0  0  0  0  0
  1  2  1  0
  2  3  1  0
  3  4  2  0
  3  5  1  0
  5  6  1  0
  6  7  1  0
  7  8  1  0
  8  9  1  0
  9 10  1  0
 10 11  1  0
 11 12  1  0
 12 13  2  0
 13 14  1  0
 14 15  2  0
 15 16  1  0
 16 17  2  0
 17 18  1  0
 18 19  2  0
 19 20  1  0
 20 21  2  0
 20 22  1  0
 10  5  1  0
 22 12  1  0
 19 14  1  0
  1 23  1  0
  1 24  1  0
  1 25  1  0
  5 26  1  0
  6 27  1  0
  6 28  1  0
  7 29  1  0
  7 30  1  0
  8 31  1  0
  8 32  1  0
  9 33  1  0
  9 34  1  0
 10 35  1  0
 11 36  1  0
 11 37  1  0
 15 38  1  0
 16 39  1  0
 17 40  1  0
 18 41  1  0
 22 42  1  0
M  CHG  1  10   1
M  END
>  <meeko>  (267) 
{"is_sidechain": false}

>  <CID>  (267) 
Z195980060

>  <pose_index>  (267) 
7

>  <docking_score>  (267) 
-7.837

>  <rmsd_to_best_selected>  (267) 
1.4039443783574312

>  <MWT>  (267) 
302.3539999999996

>  <TPSA>  (267) 
76.49000000000001

>  <logP>  (267) 
0.033500000000000585

>  <HBD>  (267) 
2

>  <HBA>  (267) 
4

>  <SMILES>  (267) 
[H]c1c([H])c([H])c2c(=O)n([H])c(C([H])([H])[N+]3([H])C([H])([H])C([H])([H])C([H])([H])C([H])([H])C3([H])C(=O)OC([H])([H])[H])nc2c1[H]

$$$$
Z195980060_pose9
     RDKit          3D

 42 44  0  0  0  0  0  0  0  0999 V2000
    1.8925   43.6977   49.5605 C   0  0  0  0  0  0  0  0  0  0  0  0
    2.0207   44.9363   50.2657 O   0  0  0  0  0  0  0  0  0  0  0  0
    2.8029   44.8709   51.3656 C   0  0  0  0  0  0  0  0  0  0  0  0
    3.9353   44.3983   51.4411 O   0  0  0  0  0  0  0  0  0  0  0  0
    2.1278   45.4765   52.5988 C   0  0  0  0  0  0  0  0  0  0  0  0
    0.9908   44.5694   53.0681 C   0  0  0  0  0  0  0  0  0  0  0  0
    0.3300   45.0826   54.3431 C   0  0  0  0  0  0  0  0  0  0  0  0
    1.3299   45.6096   55.3713 C   0  0  0  0  0  0  0  0  0  0  0  0
    2.7447   45.1362   55.0931 C   0  0  0  0  0  0  0  0  0  0  0  0
    3.1935   45.6216   53.7428 N   0  0  0  0  0  4  0  0  0  0  0  0
    3.8319   47.0138   53.7856 C   0  0  0  0  0  0  0  0  0  0  0  0
    5.3530   46.9664   53.9084 C   0  0  0  0  0  0  0  0  0  0  0  0
    6.0593   46.5973   52.8883 N   0  0  0  0  0  0  0  0  0  0  0  0
    7.4570   46.5248   53.0459 C   0  0  0  0  0  0  0  0  0  0  0  0
    8.2397   46.1393   51.9560 C   0  0  0  0  0  0  0  0  0  0  0  0
    9.6293   46.0420   52.0831 C   0  0  0  0  0  0  0  0  0  0  0  0
   10.2467   46.3318   53.3010 C   0  0  0  0  0  0  0  0  0  0  0  0
    9.4791   46.7192   54.3958 C   0  0  0  0  0  0  0  0  0  0  0  0
    8.0920   46.8119   54.2578 C   0  0  0  0  0  0  0  0  0  0  0  0
    7.2393   47.2180   55.3865 C   0  0  0  0  0  0  0  0  0  0  0  0
    7.6839   47.4988   56.4900 O   0  0  0  0  0  0  0  0  0  0  0  0
    5.8900   47.2679   55.1292 N   0  0  0  0  0  0  0  0  0  0  0  0
    1.9123   43.8887   48.4774 H   0  0  0  0  0  0  0  0  0  0  0  0
    2.7266   43.0337   49.8310 H   0  0  0  0  0  0  0  0  0  0  0  0
    0.9399   43.2187   49.8310 H   0  0  0  0  0  0  0  0  0  0  0  0
    1.7141   46.4638   52.3455 H   0  0  0  0  0  0  0  0  0  0  0  0
    0.2318   44.5139   52.2739 H   0  0  0  0  0  0  0  0  0  0  0  0
    1.4179   43.5793   53.2854 H   0  0  0  0  0  0  0  0  0  0  0  0
   -0.3586   45.8978   54.0760 H   0  0  0  0  0  0  0  0  0  0  0  0
   -0.1939   44.2322   54.8039 H   0  0  0  0  0  0  0  0  0  0  0  0
    1.3139   46.7093   55.3491 H   0  0  0  0  0  0  0  0  0  0  0  0
    1.0335   45.2237   56.3578 H   0  0  0  0  0  0  0  0  0  0  0  0
    3.4200   45.5328   55.8656 H   0  0  0  0  0  0  0  0  0  0  0  0
    2.7666   44.0365   55.1069 H   0  0  0  0  0  0  0  0  0  0  0  0
    3.9514   44.9846   53.4333 H   0  0  0  0  0  0  0  0  0  0  0  0
    3.5709   47.5482   52.8602 H   0  0  0  0  0  0  0  0  0  0  0  0
    3.4445   47.5273   54.6779 H   0  0  0  0  0  0  0  0  0  0  0  0
    7.7612   45.9109   50.9922 H   0  0  0  0  0  0  0  0  0  0  0  0
   10.2381   45.7359   51.2196 H   0  0  0  0  0  0  0  0  0  0  0  0
   11.3399   46.2541   53.3957 H   0  0  0  0  0  0  0  0  0  0  0  0
    9.9591   46.9496   55.3584 H   0  0  0  0  0  0  0  0  0  0  0  0
    5.3405   47.5668   55.9234 H   0  0  0  0  0  0  0  0  0  0  0  0
  1  2  1  0
  2  3  1  0
  3  4  2  0
  3  5  1  0
  5  6  1  0
  6  7  1  0
  7  8  1  0
  8  9  1  0
  9 10  1  0
 10 11  1  0
 11 12  1  0
 12 13  2  0
 13 14  1  0
 14 15  2  0
 15 16  1  0
 16 17  2  0
 17 18  1  0
 18 19  2  0
 19 20  1  0
 20 21  2  0
 20 22  1  0
 10  5  1  0
 22 12  1  0
 19 14  1  0
  1 23  1  0
  1 24  1  0
  1 25  1  0
  5 26  1  0
  6 27  1  0
  6 28  1  0
  7 29  1  0
  7 30  1  0
  8 31  1  0
  8 32  1  0
  9 33  1  0
  9 34  1  0
 10 35  1  0
 11 36  1  0
 11 37  1  0
 15 38  1  0
 16 39  1  0
 17 40  1  0
 18 41  1  0
 22 42  1  0
M  CHG  1  10   1
M  END
>  <meeko>  (268) 
{"is_sidechain": false}

>  <CID>  (268) 
Z195980060

>  <pose_index>  (268) 
9

>  <docking_score>  (268) 
-7.7

>  <rmsd_to_best_selected>  (268) 
1.8559562054741

>  <MWT>  (268) 
302.3539999999996

>  <TPSA>  (268) 
76.49000000000001

>  <logP>  (268) 
0.033500000000000585

>  <HBD>  (268) 
2

>  <HBA>  (268) 
4

>  <SMILES>  (268) 
[H]c1c([H])c([H])c2c(=O)n([H])c(C([H])([H])[N+]3([H])C([H])([H])C([H])([H])C([H])([H])C([H])([H])C3([H])C(=O)OC([H])([H])[H])nc2c1[H]

$$$$
Z195980060_pose10
     RDKit          3D

 42 44  0  0  0  0  0  0  0  0999 V2000
    4.0386   43.9534   50.8993 C   0  0  0  0  0  0  0  0  0  0  0  0
    2.7918   44.6552   50.8810 O   0  0  0  0  0  0  0  0  0  0  0  0
    2.8467   45.8977   51.4090 C   0  0  0  0  0  0  0  0  0  0  0  0
    3.4367   46.8724   50.9474 O   0  0  0  0  0  0  0  0  0  0  0  0
    2.0584   46.0123   52.7167 C   0  0  0  0  0  0  0  0  0  0  0  0
    0.8061   45.1404   52.6463 C   0  0  0  0  0  0  0  0  0  0  0  0
    0.0196   45.1515   53.9541 C   0  0  0  0  0  0  0  0  0  0  0  0
    0.9082   45.0744   55.1939 C   0  0  0  0  0  0  0  0  0  0  0  0
    2.3084   44.5892   54.8678 C   0  0  0  0  0  0  0  0  0  0  0  0
    2.9694   45.5341   53.9032 N   0  0  0  0  0  4  0  0  0  0  0  0
    3.6964   46.6910   54.5956 C   0  0  0  0  0  0  0  0  0  0  0  0
    5.1826   46.7503   54.2514 C   0  0  0  0  0  0  0  0  0  0  0  0
    5.6448   45.9874   53.3134 N   0  0  0  0  0  0  0  0  0  0  0  0
    7.0277   46.0349   53.0468 C   0  0  0  0  0  0  0  0  0  0  0  0
    7.5478   45.2281   52.0330 C   0  0  0  0  0  0  0  0  0  0  0  0
    8.9175   45.2413   51.7525 C   0  0  0  0  0  0  0  0  0  0  0  0
    9.7783   46.0612   52.4834 C   0  0  0  0  0  0  0  0  0  0  0  0
    9.2740   46.8733   53.4964 C   0  0  0  0  0  0  0  0  0  0  0  0
    7.9037   46.8517   53.7682 C   0  0  0  0  0  0  0  0  0  0  0  0
    7.3240   47.6928   54.8275 C   0  0  0  0  0  0  0  0  0  0  0  0
    7.9914   48.4489   55.5189 O   0  0  0  0  0  0  0  0  0  0  0  0
    5.9659   47.5806   55.0046 N   0  0  0  0  0  0  0  0  0  0  0  0
    4.2675   43.5860   49.8881 H   0  0  0  0  0  0  0  0  0  0  0  0
    4.8371   44.6330   51.2319 H   0  0  0  0  0  0  0  0  0  0  0  0
    3.9698   43.1017   51.5920 H   0  0  0  0  0  0  0  0  0  0  0  0
    1.7556   47.0578   52.8757 H   0  0  0  0  0  0  0  0  0  0  0  0
    0.1582   45.5159   51.8405 H   0  0  0  0  0  0  0  0  0  0  0  0
    1.1262   44.1057   52.4544 H   0  0  0  0  0  0  0  0  0  0  0  0
   -0.5660   46.0815   54.0016 H   0  0  0  0  0  0  0  0  0  0  0  0
   -0.6215   44.2576   53.9565 H   0  0  0  0  0  0  0  0  0  0  0  0
    0.9764   46.0760   55.6435 H   0  0  0  0  0  0  0  0  0  0  0  0
    0.4548   44.3527   55.8893 H   0  0  0  0  0  0  0  0  0  0  0  0
    2.9012   44.5397   55.7930 H   0  0  0  0  0  0  0  0  0  0  0  0
    2.2466   43.5910   54.4097 H   0  0  0  0  0  0  0  0  0  0  0  0
    3.7133   44.9957   53.4201 H   0  0  0  0  0  0  0  0  0  0  0  0
    3.2265   47.6362   54.2859 H   0  0  0  0  0  0  0  0  0  0  0  0
    3.6152   46.5295   55.6806 H   0  0  0  0  0  0  0  0  0  0  0  0
    6.8765   44.5787   51.4518 H   0  0  0  0  0  0  0  0  0  0  0  0
    9.3185   44.6023   50.9520 H   0  0  0  0  0  0  0  0  0  0  0  0
   10.8552   46.0662   52.2595 H   0  0  0  0  0  0  0  0  0  0  0  0
    9.9463   47.5237   54.0753 H   0  0  0  0  0  0  0  0  0  0  0  0
    5.6038   48.1852   55.7297 H   0  0  0  0  0  0  0  0  0  0  0  0
  1  2  1  0
  2  3  1  0
  3  4  2  0
  3  5  1  0
  5  6  1  0
  6  7  1  0
  7  8  1  0
  8  9  1  0
  9 10  1  0
 10 11  1  0
 11 12  1  0
 12 13  2  0
 13 14  1  0
 14 15  2  0
 15 16  1  0
 16 17  2  0
 17 18  1  0
 18 19  2  0
 19 20  1  0
 20 21  2  0
 20 22  1  0
 10  5  1  0
 22 12  1  0
 19 14  1  0
  1 23  1  0
  1 24  1  0
  1 25  1  0
  5 26  1  0
  6 27  1  0
  6 28  1  0
  7 29  1  0
  7 30  1  0
  8 31  1  0
  8 32  1  0
  9 33  1  0
  9 34  1  0
 10 35  1  0
 11 36  1  0
 11 37  1  0
 15 38  1  0
 16 39  1  0
 17 40  1  0
 18 41  1  0
 22 42  1  0
M  CHG  1  10   1
M  END
>  <meeko>  (269) 
{"is_sidechain": false}

>  <CID>  (269) 
Z195980060

>  <pose_index>  (269) 
10

>  <docking_score>  (269) 
-7.679

>  <rmsd_to_best_selected>  (269) 
1.940359796545438

>  <MWT>  (269) 
302.3539999999996

>  <TPSA>  (269) 
76.49000000000001

>  <logP>  (269) 
0.033500000000000585

>  <HBD>  (269) 
2

>  <HBA>  (269) 
4

>  <SMILES>  (269) 
[H]c1c([H])c([H])c2c(=O)n([H])c(C([H])([H])[N+]3([H])C([H])([H])C([H])([H])C([H])([H])C([H])([H])C3([H])C(=O)OC([H])([H])[H])nc2c1[H]

$$$$
Z218103890_pose1
     RDKit          3D

 58 61  0  0  0  0  0  0  0  0999 V2000
   10.8020   45.6560   51.5100 C   0  0  0  0  0  0  0  0  0  0  0  0
   10.6140   46.5170   52.6290 O   0  0  0  0  0  0  0  0  0  0  0  0
    9.3160   46.8480   52.9000 C   0  0  0  0  0  0  0  0  0  0  0  0
    8.4930   46.1910   53.8130 C   0  0  0  0  0  0  0  0  0  0  0  0
    7.1640   46.6020   53.9720 C   0  0  0  0  0  0  0  0  0  0  0  0
    6.6440   47.6500   53.2080 C   0  0  0  0  0  0  0  0  0  0  0  0
    5.3370   47.9600   53.4620 O   0  0  0  0  0  0  0  0  0  0  0  0
    4.7070   47.3060   54.5770 C   0  0  0  0  0  0  0  0  0  0  0  0
    3.4470   46.5930   54.2120 C   0  0  0  0  0  0  0  0  0  0  0  0
    2.7280   46.9160   53.1270 N   0  0  0  0  0  0  0  0  0  0  0  0
    1.6580   46.0310   53.1630 O   0  0  0  0  0  0  0  0  0  0  0  0
    1.8340   45.2540   54.2660 C   0  0  0  0  0  0  0  0  0  0  0  0
    0.7820   44.2330   54.5130 C   0  0  0  0  0  0  0  0  0  0  0  0
    0.8080   42.9580   53.6540 N   0  0  0  0  0  4  0  0  0  0  0  0
   -0.3610   42.8040   52.7220 C   0  0  0  0  0  0  0  0  0  0  0  0
   -0.1370   43.4380   51.3600 C   0  0  0  0  0  0  0  0  0  0  0  0
    1.2840   43.3170   50.8240 C   0  0  0  0  0  0  0  0  0  0  0  0
    2.1140   42.2830   51.5780 C   0  0  0  0  0  0  0  0  0  0  0  0
    3.5440   42.2050   51.0480 C   0  0  0  0  0  0  0  0  0  0  0  0
    4.0490   41.1080   50.8260 O   0  0  0  0  0  0  0  0  0  0  0  0
    4.1250   43.4370   50.8290 N   0  0  0  0  0  0  0  0  0  0  0  0
    5.4430   43.6950   50.3920 C   0  0  0  0  0  0  0  0  0  0  0  0
    6.2200   42.7880   49.6700 C   0  0  0  0  0  0  0  0  0  0  0  0
    7.5210   43.1220   49.2810 C   0  0  0  0  0  0  0  0  0  0  0  0
    8.0560   44.3640   49.6060 C   0  0  0  0  0  0  0  0  0  0  0  0
    7.2950   45.2730   50.3330 C   0  0  0  0  0  0  0  0  0  0  0  0
    5.9950   44.9430   50.7230 C   0  0  0  0  0  0  0  0  0  0  0  0
    2.1790   42.6580   53.0610 C   0  0  0  0  0  0  0  0  0  0  0  0
    2.9210   45.5470   54.9470 N   0  0  0  0  0  0  0  0  0  0  0  0
    7.4710   48.3160   52.3050 C   0  0  0  0  0  0  0  0  0  0  0  0
    8.8000   47.9080   52.1480 C   0  0  0  0  0  0  0  0  0  0  0  0
   11.0242   44.6384   51.8636 H   0  0  0  0  0  0  0  0  0  0  0  0
    9.8860   45.6408   50.9011 H   0  0  0  0  0  0  0  0  0  0  0  0
   11.6410   46.0240   50.9011 H   0  0  0  0  0  0  0  0  0  0  0  0
    8.8862   45.3525   54.4066 H   0  0  0  0  0  0  0  0  0  0  0  0
    6.5220   46.0941   54.7067 H   0  0  0  0  0  0  0  0  0  0  0  0
    5.4130   46.5739   54.9961 H   0  0  0  0  0  0  0  0  0  0  0  0
    4.4389   48.0879   55.3028 H   0  0  0  0  0  0  0  0  0  0  0  0
    0.8662   43.9223   55.5648 H   0  0  0  0  0  0  0  0  0  0  0  0
   -0.1596   44.7324   54.2410 H   0  0  0  0  0  0  0  0  0  0  0  0
    0.6630   42.2170   54.3530 H   0  0  0  0  0  0  0  0  0  0  0  0
   -0.5533   41.7304   52.5790 H   0  0  0  0  0  0  0  0  0  0  0  0
   -1.2140   43.3225   53.1841 H   0  0  0  0  0  0  0  0  0  0  0  0
   -0.8158   42.9546   50.6419 H   0  0  0  0  0  0  0  0  0  0  0  0
   -0.3302   44.5138   51.4840 H   0  0  0  0  0  0  0  0  0  0  0  0
    1.2363   43.0247   49.7646 H   0  0  0  0  0  0  0  0  0  0  0  0
    1.7722   44.2938   50.9562 H   0  0  0  0  0  0  0  0  0  0  0  0
    1.6272   41.3069   51.4356 H   0  0  0  0  0  0  0  0  0  0  0  0
    3.5610   44.2670   50.9790 H   0  0  0  0  0  0  0  0  0  0  0  0
    5.8063   41.8038   49.4051 H   0  0  0  0  0  0  0  0  0  0  0  0
    8.1250   42.3980   48.7145 H   0  0  0  0  0  0  0  0  0  0  0  0
    9.0764   44.6261   49.2895 H   0  0  0  0  0  0  0  0  0  0  0  0
    7.7172   46.2527   50.6011 H   0  0  0  0  0  0  0  0  0  0  0  0
    5.3976   45.6681   51.2952 H   0  0  0  0  0  0  0  0  0  0  0  0
    2.6266   41.8205   53.6162 H   0  0  0  0  0  0  0  0  0  0  0  0
    2.7841   43.5727   53.1454 H   0  0  0  0  0  0  0  0  0  0  0  0
    7.0799   49.1598   51.7176 H   0  0  0  0  0  0  0  0  0  0  0  0
    9.4463   48.4269   51.4248 H   0  0  0  0  0  0  0  0  0  0  0  0
  1  2  1  0
  2  3  1  0
  3  4  2  0
  4  5  1  0
  5  6  2  0
  6  7  1  0
  7  8  1  0
  8  9  1  0
  9 10  2  0
 10 11  1  0
 11 12  1  0
 12 13  1  0
 13 14  1  0
 14 15  1  0
 15 16  1  0
 16 17  1  0
 17 18  1  0
 18 19  1  0
 19 20  2  0
 19 21  1  0
 21 22  1  0
 22 23  2  0
 23 24  1  0
 24 25  2  0
 25 26  1  0
 26 27  2  0
 18 28  1  0
 12 29  2  0
  6 30  1  0
 30 31  2  0
 31  3  1  0
 29  9  1  0
 28 14  1  0
 27 22  1  0
  1 32  1  0
  1 33  1  0
  1 34  1  0
  4 35  1  0
  5 36  1  0
  8 37  1  0
  8 38  1  0
 13 39  1  0
 13 40  1  0
 14 41  1  0
 15 42  1  0
 15 43  1  0
 16 44  1  0
 16 45  1  0
 17 46  1  0
 17 47  1  0
 18 48  1  0
 21 49  1  0
 23 50  1  0
 24 51  1  0
 25 52  1  0
 26 53  1  0
 27 54  1  0
 28 55  1  0
 28 56  1  0
 30 57  1  0
 31 58  1  0
M  CHG  1  14   1
M  END
>  <meeko>  (270) 
{"is_sidechain": false}

>  <CID>  (270) 
Z218103890

>  <pose_index>  (270) 
1

>  <docking_score>  (270) 
-9.155

>  <rmsd_to_best_selected>  (270) 
0.0

>  <MWT>  (270) 
423.49299999999965

>  <TPSA>  (270) 
90.92

>  <logP>  (270) 
2.090799999999999

>  <HBD>  (270) 
2

>  <HBA>  (270) 
6

>  <SMILES>  (270) 
[H]c1c([H])c([H])c(N([H])C(=O)C2([H])C([H])([H])C([H])([H])C([H])([H])[N+]([H])(C([H])([H])c3nc(C([H])([H])Oc4c([H])c([H])c(OC([H])([H])[H])c([H])c4[H])no3)C2([H])[H])c([H])c1[H]

$$$$
Z218103890_pose2
     RDKit          3D

 58 61  0  0  0  0  0  0  0  0999 V2000
   10.7055   45.4214   51.6493 C   0  0  0  0  0  0  0  0  0  0  0  0
   10.5263   46.5318   52.5222 O   0  0  0  0  0  0  0  0  0  0  0  0
    9.2298   46.9232   52.7110 C   0  0  0  0  0  0  0  0  0  0  0  0
    8.6354   48.0389   52.1229 C   0  0  0  0  0  0  0  0  0  0  0  0
    7.3070   48.3592   52.4271 C   0  0  0  0  0  0  0  0  0  0  0  0
    6.5747   47.5856   53.3328 C   0  0  0  0  0  0  0  0  0  0  0  0
    5.2879   47.9968   53.5390 O   0  0  0  0  0  0  0  0  0  0  0  0
    4.5860   47.4348   54.6607 C   0  0  0  0  0  0  0  0  0  0  0  0
    3.3646   46.6672   54.2726 C   0  0  0  0  0  0  0  0  0  0  0  0
    2.6618   46.9499   53.1661 N   0  0  0  0  0  0  0  0  0  0  0  0
    1.6266   46.0245   53.1865 O   0  0  0  0  0  0  0  0  0  0  0  0
    1.8049   45.2665   54.3020 C   0  0  0  0  0  0  0  0  0  0  0  0
    0.7870   44.2076   54.5344 C   0  0  0  0  0  0  0  0  0  0  0  0
    0.8582   42.9446   53.6606 N   0  0  0  0  0  4  0  0  0  0  0  0
   -0.2920   42.7750   52.7084 C   0  0  0  0  0  0  0  0  0  0  0  0
   -0.0630   43.4322   51.3588 C   0  0  0  0  0  0  0  0  0  0  0  0
    1.3696   43.3521   50.8428 C   0  0  0  0  0  0  0  0  0  0  0  0
    2.2116   42.3291   51.5963 C   0  0  0  0  0  0  0  0  0  0  0  0
    3.6518   42.2919   51.0881 C   0  0  0  0  0  0  0  0  0  0  0  0
    4.2068   41.2108   50.9182 O   0  0  0  0  0  0  0  0  0  0  0  0
    4.1820   43.5385   50.8263 N   0  0  0  0  0  0  0  0  0  0  0  0
    5.4934   43.8364   50.3963 C   0  0  0  0  0  0  0  0  0  0  0  0
    6.1409   45.0481   50.6413 C   0  0  0  0  0  0  0  0  0  0  0  0
    7.4412   45.2645   50.1728 C   0  0  0  0  0  0  0  0  0  0  0  0
    8.1061   44.2733   49.4575 C   0  0  0  0  0  0  0  0  0  0  0  0
    7.4677   43.0648   49.1986 C   0  0  0  0  0  0  0  0  0  0  0  0
    6.1694   42.8454   49.6661 C   0  0  0  0  0  0  0  0  0  0  0  0
    2.2444   42.6852   53.0860 C   0  0  0  0  0  0  0  0  0  0  0  0
    2.8620   45.6098   55.0071 N   0  0  0  0  0  0  0  0  0  0  0  0
    7.1663   46.4631   53.9097 C   0  0  0  0  0  0  0  0  0  0  0  0
    8.4927   46.1408   53.6034 C   0  0  0  0  0  0  0  0  0  0  0  0
   10.8350   44.5049   52.2436 H   0  0  0  0  0  0  0  0  0  0  0  0
    9.8220   45.3171   51.0024 H   0  0  0  0  0  0  0  0  0  0  0  0
   11.5981   45.5842   51.0273 H   0  0  0  0  0  0  0  0  0  0  0  0
    9.2079   48.6650   51.4227 H   0  0  0  0  0  0  0  0  0  0  0  0
    6.8340   49.2293   51.9483 H   0  0  0  0  0  0  0  0  0  0  0  0
    5.2683   46.7574   55.1951 H   0  0  0  0  0  0  0  0  0  0  0  0
    4.2555   48.2740   55.2903 H   0  0  0  0  0  0  0  0  0  0  0  0
    0.8792   43.8876   55.5828 H   0  0  0  0  0  0  0  0  0  0  0  0
   -0.1703   44.6782   54.2659 H   0  0  0  0  0  0  0  0  0  0  0  0
    0.7194   42.1911   54.3474 H   0  0  0  0  0  0  0  0  0  0  0  0
   -0.4558   41.6991   52.5483 H   0  0  0  0  0  0  0  0  0  0  0  0
   -1.1643   43.2667   53.1638 H   0  0  0  0  0  0  0  0  0  0  0  0
   -0.7191   42.9425   50.6242 H   0  0  0  0  0  0  0  0  0  0  0  0
   -0.2839   44.5013   51.4939 H   0  0  0  0  0  0  0  0  0  0  0  0
    1.3451   43.0725   49.7792 H   0  0  0  0  0  0  0  0  0  0  0  0
    1.8322   44.3385   50.9944 H   0  0  0  0  0  0  0  0  0  0  0  0
    1.7503   41.3438   51.4334 H   0  0  0  0  0  0  0  0  0  0  0  0
    3.5801   44.3484   50.9361 H   0  0  0  0  0  0  0  0  0  0  0  0
    5.6253   45.8385   51.2066 H   0  0  0  0  0  0  0  0  0  0  0  0
    7.9411   46.2241   50.3711 H   0  0  0  0  0  0  0  0  0  0  0  0
    9.1316   44.4445   49.0984 H   0  0  0  0  0  0  0  0  0  0  0  0
    7.9853   42.2814   48.6256 H   0  0  0  0  0  0  0  0  0  0  0  0
    5.6715   41.8864   49.4600 H   0  0  0  0  0  0  0  0  0  0  0  0
    2.7028   41.8508   53.6370 H   0  0  0  0  0  0  0  0  0  0  0  0
    2.8262   43.6126   53.1925 H   0  0  0  0  0  0  0  0  0  0  0  0
    6.5917   45.8323   54.6040 H   0  0  0  0  0  0  0  0  0  0  0  0
    8.9606   45.2616   54.0705 H   0  0  0  0  0  0  0  0  0  0  0  0
  1  2  1  0
  2  3  1  0
  3  4  2  0
  4  5  1  0
  5  6  2  0
  6  7  1  0
  7  8  1  0
  8  9  1  0
  9 10  2  0
 10 11  1  0
 11 12  1  0
 12 13  1  0
 13 14  1  0
 14 15  1  0
 15 16  1  0
 16 17  1  0
 17 18  1  0
 18 19  1  0
 19 20  2  0
 19 21  1  0
 21 22  1  0
 22 23  2  0
 23 24  1  0
 24 25  2  0
 25 26  1  0
 26 27  2  0
 18 28  1  0
 12 29  2  0
  6 30  1  0
 30 31  2  0
 31  3  1  0
 29  9  1  0
 28 14  1  0
 27 22  1  0
  1 32  1  0
  1 33  1  0
  1 34  1  0
  4 35  1  0
  5 36  1  0
  8 37  1  0
  8 38  1  0
 13 39  1  0
 13 40  1  0
 14 41  1  0
 15 42  1  0
 15 43  1  0
 16 44  1  0
 16 45  1  0
 17 46  1  0
 17 47  1  0
 18 48  1  0
 21 49  1  0
 23 50  1  0
 24 51  1  0
 25 52  1  0
 26 53  1  0
 27 54  1  0
 28 55  1  0
 28 56  1  0
 30 57  1  0
 31 58  1  0
M  CHG  1  14   1
M  END
>  <meeko>  (271) 
{"is_sidechain": false}

>  <CID>  (271) 
Z218103890

>  <pose_index>  (271) 
2

>  <docking_score>  (271) 
-9.037

>  <rmsd_to_best_selected>  (271) 
0.19769338802666797

>  <MWT>  (271) 
423.49299999999965

>  <TPSA>  (271) 
90.92

>  <logP>  (271) 
2.090799999999999

>  <HBD>  (271) 
2

>  <HBA>  (271) 
6

>  <SMILES>  (271) 
[H]c1c([H])c([H])c(N([H])C(=O)C2([H])C([H])([H])C([H])([H])C([H])([H])[N+]([H])(C([H])([H])c3nc(C([H])([H])Oc4c([H])c([H])c(OC([H])([H])[H])c([H])c4[H])no3)C2([H])[H])c([H])c1[H]

$$$$
Z218103890_pose3
     RDKit          3D

 58 61  0  0  0  0  0  0  0  0999 V2000
   11.0049   46.4026   51.5993 C   0  0  0  0  0  0  0  0  0  0  0  0
   10.7644   47.5404   52.4210 O   0  0  0  0  0  0  0  0  0  0  0  0
    9.4864   47.6602   52.8928 C   0  0  0  0  0  0  0  0  0  0  0  0
    9.1396   47.8598   54.2286 C   0  0  0  0  0  0  0  0  0  0  0  0
    7.7903   47.9260   54.5931 C   0  0  0  0  0  0  0  0  0  0  0  0
    6.7825   47.7717   53.6367 C   0  0  0  0  0  0  0  0  0  0  0  0
    5.5068   47.8645   54.1178 O   0  0  0  0  0  0  0  0  0  0  0  0
    5.0306   46.7868   54.9404 C   0  0  0  0  0  0  0  0  0  0  0  0
    3.7570   46.1813   54.4465 C   0  0  0  0  0  0  0  0  0  0  0  0
    3.1462   46.6051   53.3307 N   0  0  0  0  0  0  0  0  0  0  0  0
    2.0209   45.7972   53.2412 O   0  0  0  0  0  0  0  0  0  0  0  0
    2.0586   44.9587   54.3119 C   0  0  0  0  0  0  0  0  0  0  0  0
    0.9257   44.0029   54.4276 C   0  0  0  0  0  0  0  0  0  0  0  0
    0.8127   42.8971   53.3659 N   0  0  0  0  0  4  0  0  0  0  0  0
   -0.5154   42.8334   52.6639 C   0  0  0  0  0  0  0  0  0  0  0  0
   -0.5857   43.7033   51.4207 C   0  0  0  0  0  0  0  0  0  0  0  0
    0.7024   43.7617   50.6080 C   0  0  0  0  0  0  0  0  0  0  0  0
    1.6930   42.6669   50.9896 C   0  0  0  0  0  0  0  0  0  0  0  0
    2.9902   42.7668   50.1896 C   0  0  0  0  0  0  0  0  0  0  0  0
    2.9601   42.6394   48.9686 O   0  0  0  0  0  0  0  0  0  0  0  0
    4.1003   43.0438   50.9607 N   0  0  0  0  0  0  0  0  0  0  0  0
    5.4390   43.1481   50.5245 C   0  0  0  0  0  0  0  0  0  0  0  0
    6.2185   42.0626   50.1228 C   0  0  0  0  0  0  0  0  0  0  0  0
    7.5414   42.2540   49.7110 C   0  0  0  0  0  0  0  0  0  0  0  0
    8.0966   43.5290   49.6952 C   0  0  0  0  0  0  0  0  0  0  0  0
    7.3322   44.6177   50.1017 C   0  0  0  0  0  0  0  0  0  0  0  0
    6.0104   44.4307   50.5132 C   0  0  0  0  0  0  0  0  0  0  0  0
    2.0437   42.7864   52.4760 C   0  0  0  0  0  0  0  0  0  0  0  0
    3.1082   45.1414   55.0856 N   0  0  0  0  0  0  0  0  0  0  0  0
    7.1305   47.5859   52.2997 C   0  0  0  0  0  0  0  0  0  0  0  0
    8.4794   47.5228   51.9335 C   0  0  0  0  0  0  0  0  0  0  0  0
   10.9836   45.4929   52.2173 H   0  0  0  0  0  0  0  0  0  0  0  0
   10.2262   46.3382   50.8250 H   0  0  0  0  0  0  0  0  0  0  0  0
   11.9908   46.4978   51.1207 H   0  0  0  0  0  0  0  0  0  0  0  0
    9.9238   47.9647   54.9928 H   0  0  0  0  0  0  0  0  0  0  0  0
    7.5194   48.1017   55.6446 H   0  0  0  0  0  0  0  0  0  0  0  0
    5.8015   46.0027   54.9686 H   0  0  0  0  0  0  0  0  0  0  0  0
    4.8261   47.2050   55.9371 H   0  0  0  0  0  0  0  0  0  0  0  0
    1.0104   43.5102   55.4075 H   0  0  0  0  0  0  0  0  0  0  0  0
    0.0260   44.6193   54.2841 H   0  0  0  0  0  0  0  0  0  0  0  0
    0.8289   42.0405   53.9356 H   0  0  0  0  0  0  0  0  0  0  0  0
   -0.7043   41.7903   52.3702 H   0  0  0  0  0  0  0  0  0  0  0  0
   -1.2716   43.2123   53.3671 H   0  0  0  0  0  0  0  0  0  0  0  0
   -1.3820   43.3094   50.7720 H   0  0  0  0  0  0  0  0  0  0  0  0
   -0.7781   44.7283   51.7703 H   0  0  0  0  0  0  0  0  0  0  0  0
    0.4509   43.6523   49.5428 H   0  0  0  0  0  0  0  0  0  0  0  0
    1.1819   44.7294   50.8172 H   0  0  0  0  0  0  0  0  0  0  0  0
    1.2128   41.7020   50.7697 H   0  0  0  0  0  0  0  0  0  0  0  0
    3.9666   43.2054   51.9542 H   0  0  0  0  0  0  0  0  0  0  0  0
    5.7897   41.0497   50.1301 H   0  0  0  0  0  0  0  0  0  0  0  0
    8.1465   41.3905   49.3975 H   0  0  0  0  0  0  0  0  0  0  0  0
    9.1350   43.6757   49.3631 H   0  0  0  0  0  0  0  0  0  0  0  0
    7.7691   45.6272   50.0990 H   0  0  0  0  0  0  0  0  0  0  0  0
    5.4114   45.2967   50.8316 H   0  0  0  0  0  0  0  0  0  0  0  0
    2.6145   41.8949   52.7751 H   0  0  0  0  0  0  0  0  0  0  0  0
    2.6296   43.7084   52.6049 H   0  0  0  0  0  0  0  0  0  0  0  0
    6.3464   47.4892   51.5343 H   0  0  0  0  0  0  0  0  0  0  0  0
    8.7502   47.3633   50.8793 H   0  0  0  0  0  0  0  0  0  0  0  0
  1  2  1  0
  2  3  1  0
  3  4  2  0
  4  5  1  0
  5  6  2  0
  6  7  1  0
  7  8  1  0
  8  9  1  0
  9 10  2  0
 10 11  1  0
 11 12  1  0
 12 13  1  0
 13 14  1  0
 14 15  1  0
 15 16  1  0
 16 17  1  0
 17 18  1  0
 18 19  1  0
 19 20  2  0
 19 21  1  0
 21 22  1  0
 22 23  2  0
 23 24  1  0
 24 25  2  0
 25 26  1  0
 26 27  2  0
 18 28  1  0
 12 29  2  0
  6 30  1  0
 30 31  2  0
 31  3  1  0
 29  9  1  0
 28 14  1  0
 27 22  1  0
  1 32  1  0
  1 33  1  0
  1 34  1  0
  4 35  1  0
  5 36  1  0
  8 37  1  0
  8 38  1  0
 13 39  1  0
 13 40  1  0
 14 41  1  0
 15 42  1  0
 15 43  1  0
 16 44  1  0
 16 45  1  0
 17 46  1  0
 17 47  1  0
 18 48  1  0
 21 49  1  0
 23 50  1  0
 24 51  1  0
 25 52  1  0
 26 53  1  0
 27 54  1  0
 28 55  1  0
 28 56  1  0
 30 57  1  0
 31 58  1  0
M  CHG  1  14   1
M  END
>  <meeko>  (272) 
{"is_sidechain": false}

>  <CID>  (272) 
Z218103890

>  <pose_index>  (272) 
3

>  <docking_score>  (272) 
-8.941

>  <rmsd_to_best_selected>  (272) 
1.0204665378655495

>  <MWT>  (272) 
423.49299999999965

>  <TPSA>  (272) 
90.92

>  <logP>  (272) 
2.090799999999999

>  <HBD>  (272) 
2

>  <HBA>  (272) 
6

>  <SMILES>  (272) 
[H]c1c([H])c([H])c(N([H])C(=O)C2([H])C([H])([H])C([H])([H])C([H])([H])[N+]([H])(C([H])([H])c3nc(C([H])([H])Oc4c([H])c([H])c(OC([H])([H])[H])c([H])c4[H])no3)C2([H])[H])c([H])c1[H]

$$$$
Z218103890_pose4
     RDKit          3D

 58 61  0  0  0  0  0  0  0  0999 V2000
    9.9832   46.1673   51.0232 C   0  0  0  0  0  0  0  0  0  0  0  0
    9.7189   45.8540   52.3871 O   0  0  0  0  0  0  0  0  0  0  0  0
    8.4746   46.2023   52.8362 C   0  0  0  0  0  0  0  0  0  0  0  0
    7.3195   45.4383   52.6725 C   0  0  0  0  0  0  0  0  0  0  0  0
    6.0938   45.9246   53.1434 C   0  0  0  0  0  0  0  0  0  0  0  0
    6.0097   47.1771   53.7567 C   0  0  0  0  0  0  0  0  0  0  0  0
    4.7592   47.5338   54.1797 O   0  0  0  0  0  0  0  0  0  0  0  0
    4.3905   47.1786   55.5235 C   0  0  0  0  0  0  0  0  0  0  0  0
    3.3076   46.1517   55.5901 C   0  0  0  0  0  0  0  0  0  0  0  0
    3.1404   45.3550   56.6549 N   0  0  0  0  0  0  0  0  0  0  0  0
    2.0521   44.5638   56.3092 O   0  0  0  0  0  0  0  0  0  0  0  0
    1.6627   44.9616   55.0677 C   0  0  0  0  0  0  0  0  0  0  0  0
    0.5061   44.2292   54.4866 C   0  0  0  0  0  0  0  0  0  0  0  0
    0.7892   43.2398   53.3439 N   0  0  0  0  0  4  0  0  0  0  0  0
   -0.0775   43.4193   52.1287 C   0  0  0  0  0  0  0  0  0  0  0  0
    0.4986   44.3888   51.1115 C   0  0  0  0  0  0  0  0  0  0  0  0
    2.0144   44.3341   50.9623 C   0  0  0  0  0  0  0  0  0  0  0  0
    2.6248   43.0854   51.5890 C   0  0  0  0  0  0  0  0  0  0  0  0
    4.1461   43.0691   51.4608 C   0  0  0  0  0  0  0  0  0  0  0  0
    4.8359   42.8391   52.4501 O   0  0  0  0  0  0  0  0  0  0  0  0
    4.5997   43.2870   50.1762 N   0  0  0  0  0  0  0  0  0  0  0  0
    5.9416   43.3789   49.7467 C   0  0  0  0  0  0  0  0  0  0  0  0
    6.9486   42.4922   50.1311 C   0  0  0  0  0  0  0  0  0  0  0  0
    8.2565   42.6588   49.6637 C   0  0  0  0  0  0  0  0  0  0  0  0
    8.5693   43.7105   48.8076 C   0  0  0  0  0  0  0  0  0  0  0  0
    7.5763   44.6049   48.4250 C   0  0  0  0  0  0  0  0  0  0  0  0
    6.2690   44.4411   48.8895 C   0  0  0  0  0  0  0  0  0  0  0  0
    2.2742   43.0329   53.0794 C   0  0  0  0  0  0  0  0  0  0  0  0
    2.3917   45.9404   54.5769 N   0  0  0  0  0  0  0  0  0  0  0  0
    7.1675   47.9337   53.9318 C   0  0  0  0  0  0  0  0  0  0  0  0
    8.3936   47.4476   53.4646 C   0  0  0  0  0  0  0  0  0  0  0  0
    9.0377   46.1853   50.4613 H   0  0  0  0  0  0  0  0  0  0  0  0
   10.4659   47.1537   50.9604 H   0  0  0  0  0  0  0  0  0  0  0  0
   10.6501   45.4048   50.5944 H   0  0  0  0  0  0  0  0  0  0  0  0
    7.3710   44.4582   52.1758 H   0  0  0  0  0  0  0  0  0  0  0  0
    5.1865   45.3133   53.0292 H   0  0  0  0  0  0  0  0  0  0  0  0
    5.2795   46.7817   56.0355 H   0  0  0  0  0  0  0  0  0  0  0  0
    4.0047   48.0890   56.0055 H   0  0  0  0  0  0  0  0  0  0  0  0
    0.0322   43.6630   55.3020 H   0  0  0  0  0  0  0  0  0  0  0  0
   -0.1179   45.0114   54.0297 H   0  0  0  0  0  0  0  0  0  0  0  0
    0.4711   42.3456   53.7408 H   0  0  0  0  0  0  0  0  0  0  0  0
   -0.2041   42.4402   51.6436 H   0  0  0  0  0  0  0  0  0  0  0  0
   -1.0334   43.8413   52.4726 H   0  0  0  0  0  0  0  0  0  0  0  0
    0.0503   44.1639   50.1326 H   0  0  0  0  0  0  0  0  0  0  0  0
    0.2601   45.3985   51.4771 H   0  0  0  0  0  0  0  0  0  0  0  0
    2.2628   44.3470   49.8908 H   0  0  0  0  0  0  0  0  0  0  0  0
    2.4307   45.2061   51.4881 H   0  0  0  0  0  0  0  0  0  0  0  0
    2.2131   42.2175   51.0532 H   0  0  0  0  0  0  0  0  0  0  0  0
    3.9130   43.3828   49.4347 H   0  0  0  0  0  0  0  0  0  0  0  0
    6.7121   41.6566   50.8063 H   0  0  0  0  0  0  0  0  0  0  0  0
    9.0422   41.9544   49.9745 H   0  0  0  0  0  0  0  0  0  0  0  0
    9.5972   43.8334   48.4357 H   0  0  0  0  0  0  0  0  0  0  0  0
    7.8203   45.4428   47.7554 H   0  0  0  0  0  0  0  0  0  0  0  0
    5.4884   45.1517   48.5803 H   0  0  0  0  0  0  0  0  0  0  0  0
    2.5680   42.0495   53.4751 H   0  0  0  0  0  0  0  0  0  0  0  0
    2.8162   43.8512   53.5761 H   0  0  0  0  0  0  0  0  0  0  0  0
    7.1174   48.9101   54.4359 H   0  0  0  0  0  0  0  0  0  0  0  0
    9.3034   48.0523   53.5935 H   0  0  0  0  0  0  0  0  0  0  0  0
  1  2  1  0
  2  3  1  0
  3  4  2  0
  4  5  1  0
  5  6  2  0
  6  7  1  0
  7  8  1  0
  8  9  1  0
  9 10  2  0
 10 11  1  0
 11 12  1  0
 12 13  1  0
 13 14  1  0
 14 15  1  0
 15 16  1  0
 16 17  1  0
 17 18  1  0
 18 19  1  0
 19 20  2  0
 19 21  1  0
 21 22  1  0
 22 23  2  0
 23 24  1  0
 24 25  2  0
 25 26  1  0
 26 27  2  0
 18 28  1  0
 12 29  2  0
  6 30  1  0
 30 31  2  0
 31  3  1  0
 29  9  1  0
 28 14  1  0
 27 22  1  0
  1 32  1  0
  1 33  1  0
  1 34  1  0
  4 35  1  0
  5 36  1  0
  8 37  1  0
  8 38  1  0
 13 39  1  0
 13 40  1  0
 14 41  1  0
 15 42  1  0
 15 43  1  0
 16 44  1  0
 16 45  1  0
 17 46  1  0
 17 47  1  0
 18 48  1  0
 21 49  1  0
 23 50  1  0
 24 51  1  0
 25 52  1  0
 26 53  1  0
 27 54  1  0
 28 55  1  0
 28 56  1  0
 30 57  1  0
 31 58  1  0
M  CHG  1  14   1
M  END
>  <meeko>  (273) 
{"is_sidechain": false}

>  <CID>  (273) 
Z218103890

>  <pose_index>  (273) 
4

>  <docking_score>  (273) 
-8.77

>  <rmsd_to_best_selected>  (273) 
1.5537647179558824

>  <MWT>  (273) 
423.49299999999965

>  <TPSA>  (273) 
90.92

>  <logP>  (273) 
2.090799999999999

>  <HBD>  (273) 
2

>  <HBA>  (273) 
6

>  <SMILES>  (273) 
[H]c1c([H])c([H])c(N([H])C(=O)C2([H])C([H])([H])C([H])([H])C([H])([H])[N+]([H])(C([H])([H])c3nc(C([H])([H])Oc4c([H])c([H])c(OC([H])([H])[H])c([H])c4[H])no3)C2([H])[H])c([H])c1[H]

$$$$
Z218103890_pose9
     RDKit          3D

 58 61  0  0  0  0  0  0  0  0999 V2000
   11.1866   46.1053   51.7700 C   0  0  0  0  0  0  0  0  0  0  0  0
   10.8597   45.9632   53.1493 O   0  0  0  0  0  0  0  0  0  0  0  0
    9.5529   45.6588   53.4112 C   0  0  0  0  0  0  0  0  0  0  0  0
    8.4735   46.5192   53.2164 C   0  0  0  0  0  0  0  0  0  0  0  0
    7.1824   46.1033   53.5619 C   0  0  0  0  0  0  0  0  0  0  0  0
    6.9641   44.8416   54.1224 C   0  0  0  0  0  0  0  0  0  0  0  0
    5.6584   44.5517   54.4085 O   0  0  0  0  0  0  0  0  0  0  0  0
    4.7920   45.6532   54.7258 C   0  0  0  0  0  0  0  0  0  0  0  0
    3.3550   45.2622   54.8494 C   0  0  0  0  0  0  0  0  0  0  0  0
    2.7731   45.0381   56.0362 N   0  0  0  0  0  0  0  0  0  0  0  0
    1.4665   44.7016   55.7065 O   0  0  0  0  0  0  0  0  0  0  0  0
    1.3830   44.7582   54.3497 C   0  0  0  0  0  0  0  0  0  0  0  0
    0.0582   44.4150   53.7686 C   0  0  0  0  0  0  0  0  0  0  0  0
    0.0138   43.9973   52.2888 N   0  0  0  0  0  4  0  0  0  0  0  0
   -0.6507   44.9906   51.3761 C   0  0  0  0  0  0  0  0  0  0  0  0
    0.3054   46.0251   50.8088 C   0  0  0  0  0  0  0  0  0  0  0  0
    1.6949   45.4963   50.4742 C   0  0  0  0  0  0  0  0  0  0  0  0
    1.7537   43.9731   50.4335 C   0  0  0  0  0  0  0  0  0  0  0  0
    3.1623   43.4655   50.1339 C   0  0  0  0  0  0  0  0  0  0  0  0
    3.3129   42.4959   49.3952 O   0  0  0  0  0  0  0  0  0  0  0  0
    4.1610   44.2129   50.7226 N   0  0  0  0  0  0  0  0  0  0  0  0
    5.5518   43.9702   50.6755 C   0  0  0  0  0  0  0  0  0  0  0  0
    6.1576   42.7981   51.1284 C   0  0  0  0  0  0  0  0  0  0  0  0
    7.5450   42.6414   51.0497 C   0  0  0  0  0  0  0  0  0  0  0  0
    8.3383   43.6529   50.5179 C   0  0  0  0  0  0  0  0  0  0  0  0
    7.7467   44.8301   50.0714 C   0  0  0  0  0  0  0  0  0  0  0  0
    6.3610   44.9894   50.1480 C   0  0  0  0  0  0  0  0  0  0  0  0
    1.3241   43.4041   51.7900 C   0  0  0  0  0  0  0  0  0  0  0  0
    2.5101   45.1055   53.7673 N   0  0  0  0  0  0  0  0  0  0  0  0
    8.0415   43.9768   54.3041 C   0  0  0  0  0  0  0  0  0  0  0  0
    9.3317   44.3906   53.9556 C   0  0  0  0  0  0  0  0  0  0  0  0
   11.7835   47.0181   51.6268 H   0  0  0  0  0  0  0  0  0  0  0  0
   11.7673   45.2317   51.4389 H   0  0  0  0  0  0  0  0  0  0  0  0
   10.2613   46.1758   51.1793 H   0  0  0  0  0  0  0  0  0  0  0  0
    8.6358   47.5213   52.7928 H   0  0  0  0  0  0  0  0  0  0  0  0
    6.3299   46.7771   53.3904 H   0  0  0  0  0  0  0  0  0  0  0  0
    5.1181   46.0891   55.6817 H   0  0  0  0  0  0  0  0  0  0  0  0
    4.8627   46.3713   53.8955 H   0  0  0  0  0  0  0  0  0  0  0  0
   -0.3533   43.5821   54.3576 H   0  0  0  0  0  0  0  0  0  0  0  0
   -0.5155   45.3526   53.8105 H   0  0  0  0  0  0  0  0  0  0  0  0
   -0.6397   43.2027   52.3029 H   0  0  0  0  0  0  0  0  0  0  0  0
   -1.1079   44.4427   50.5390 H   0  0  0  0  0  0  0  0  0  0  0  0
   -1.3962   45.5331   51.9760 H   0  0  0  0  0  0  0  0  0  0  0  0
   -0.1373   46.4310   49.8872 H   0  0  0  0  0  0  0  0  0  0  0  0
    0.4435   46.7826   51.5944 H   0  0  0  0  0  0  0  0  0  0  0  0
    1.9913   45.8858   49.4891 H   0  0  0  0  0  0  0  0  0  0  0  0
    2.3774   45.8330   51.2684 H   0  0  0  0  0  0  0  0  0  0  0  0
    1.0772   43.6424   49.6316 H   0  0  0  0  0  0  0  0  0  0  0  0
    3.8953   45.0419   51.2453 H   0  0  0  0  0  0  0  0  0  0  0  0
    5.5398   41.9916   51.5502 H   0  0  0  0  0  0  0  0  0  0  0  0
    8.0118   41.7130   51.4105 H   0  0  0  0  0  0  0  0  0  0  0  0
    9.4284   43.5224   50.4507 H   0  0  0  0  0  0  0  0  0  0  0  0
    8.3705   45.6361   49.6577 H   0  0  0  0  0  0  0  0  0  0  0  0
    5.8994   45.9221   49.7918 H   0  0  0  0  0  0  0  0  0  0  0  0
    1.2025   42.3152   51.6920 H   0  0  0  0  0  0  0  0  0  0  0  0
    2.1048   43.6627   52.5205 H   0  0  0  0  0  0  0  0  0  0  0  0
    7.8780   42.9717   54.7203 H   0  0  0  0  0  0  0  0  0  0  0  0
   10.1817   43.7101   54.1119 H   0  0  0  0  0  0  0  0  0  0  0  0
  1  2  1  0
  2  3  1  0
  3  4  2  0
  4  5  1  0
  5  6  2  0
  6  7  1  0
  7  8  1  0
  8  9  1  0
  9 10  2  0
 10 11  1  0
 11 12  1  0
 12 13  1  0
 13 14  1  0
 14 15  1  0
 15 16  1  0
 16 17  1  0
 17 18  1  0
 18 19  1  0
 19 20  2  0
 19 21  1  0
 21 22  1  0
 22 23  2  0
 23 24  1  0
 24 25  2  0
 25 26  1  0
 26 27  2  0
 18 28  1  0
 12 29  2  0
  6 30  1  0
 30 31  2  0
 31  3  1  0
 29  9  1  0
 28 14  1  0
 27 22  1  0
  1 32  1  0
  1 33  1  0
  1 34  1  0
  4 35  1  0
  5 36  1  0
  8 37  1  0
  8 38  1  0
 13 39  1  0
 13 40  1  0
 14 41  1  0
 15 42  1  0
 15 43  1  0
 16 44  1  0
 16 45  1  0
 17 46  1  0
 17 47  1  0
 18 48  1  0
 21 49  1  0
 23 50  1  0
 24 51  1  0
 25 52  1  0
 26 53  1  0
 27 54  1  0
 28 55  1  0
 28 56  1  0
 30 57  1  0
 31 58  1  0
M  CHG  1  14   1
M  END
>  <meeko>  (274) 
{"is_sidechain": false}

>  <CID>  (274) 
Z218103890

>  <pose_index>  (274) 
9

>  <docking_score>  (274) 
-7.864

>  <rmsd_to_best_selected>  (274) 
1.5198570557336641

>  <MWT>  (274) 
423.49299999999965

>  <TPSA>  (274) 
90.92

>  <logP>  (274) 
2.090799999999999

>  <HBD>  (274) 
2

>  <HBA>  (274) 
6

>  <SMILES>  (274) 
[H]c1c([H])c([H])c(N([H])C(=O)C2([H])C([H])([H])C([H])([H])C([H])([H])[N+]([H])(C([H])([H])c3nc(C([H])([H])Oc4c([H])c([H])c(OC([H])([H])[H])c([H])c4[H])no3)C2([H])[H])c([H])c1[H]

$$$$
Z24682342_pose6
     RDKit          3D

 46 49  0  0  0  0  0  0  0  0999 V2000
    2.9816   46.0393   54.0469 O   0  0  0  0  0  0  0  0  0  0  0  0
    2.5330   45.7888   52.9259 C   0  0  0  0  0  0  0  0  0  0  0  0
    2.6715   46.7806   51.7833 C   0  0  0  0  0  0  0  0  0  0  0  0
    3.7271   48.1679   52.3125 S   0  0  0  0  0  0  0  0  0  0  0  0
    5.3477   47.4928   52.0697 C   0  0  0  0  0  0  0  0  0  0  0  0
    5.4904   46.3733   51.3622 N   0  0  0  0  0  0  0  0  0  0  0  0
    6.7288   45.8782   51.2028 C   0  0  0  0  0  0  0  0  0  0  0  0
    6.9080   44.6954   50.4345 N   0  0  0  0  0  0  0  0  0  0  0  0
    6.0944   43.5389   50.4124 C   0  0  0  0  0  0  0  0  0  0  0  0
    6.3378   42.5525   49.4448 C   0  0  0  0  0  0  0  0  0  0  0  0
    5.5896   41.3699   49.4108 C   0  0  0  0  0  0  0  0  0  0  0  0
    4.6000   41.1461   50.3618 C   0  0  0  0  0  0  0  0  0  0  0  0
    4.3727   42.0940   51.3555 C   0  0  0  0  0  0  0  0  0  0  0  0
    5.1248   43.2722   51.3853 C   0  0  0  0  0  0  0  0  0  0  0  0
    7.8541   46.5068   51.7629 C   0  0  0  0  0  0  0  0  0  0  0  0
    9.1907   46.0386   51.6665 C   0  0  0  0  0  0  0  0  0  0  0  0
   10.2388   46.7439   52.2533 C   0  0  0  0  0  0  0  0  0  0  0  0
    9.9691   47.9160   52.9434 C   0  0  0  0  0  0  0  0  0  0  0  0
    8.6510   48.3688   53.0488 C   0  0  0  0  0  0  0  0  0  0  0  0
    7.5877   47.6826   52.4733 C   0  0  0  0  0  0  0  0  0  0  0  0
    6.3567   48.1747   52.6247 N   0  0  0  0  0  0  0  0  0  0  0  0
    1.8960   44.5928   52.6606 N   0  0  0  0  0  0  0  0  0  0  0  0
    1.7550   43.5756   53.6878 C   0  0  0  0  0  0  0  0  0  0  0  0
    1.2580   42.3477   52.9381 C   0  0  0  0  0  0  0  0  0  0  0  0
    0.4498   42.9515   51.7987 C   0  0  0  0  0  0  0  0  0  0  0  0
    1.2647   44.1813   51.4183 C   0  0  0  0  0  0  0  0  0  0  0  0
    3.1290   46.2809   50.9167 H   0  0  0  0  0  0  0  0  0  0  0  0
    1.6778   47.1605   51.5034 H   0  0  0  0  0  0  0  0  0  0  0  0
    7.2201   44.9464   49.5045 H   0  0  0  0  0  0  0  0  0  0  0  0
    7.1310   42.7114   48.6994 H   0  0  0  0  0  0  0  0  0  0  0  0
    5.7844   40.6179   48.6321 H   0  0  0  0  0  0  0  0  0  0  0  0
    3.9998   40.2248   50.3290 H   0  0  0  0  0  0  0  0  0  0  0  0
    3.6004   41.9158   52.1183 H   0  0  0  0  0  0  0  0  0  0  0  0
    4.9510   44.0032   52.1887 H   0  0  0  0  0  0  0  0  0  0  0  0
    9.4015   45.1068   51.1214 H   0  0  0  0  0  0  0  0  0  0  0  0
   11.2715   46.3743   52.1700 H   0  0  0  0  0  0  0  0  0  0  0  0
   10.7882   48.4865   53.4055 H   0  0  0  0  0  0  0  0  0  0  0  0
    8.4487   49.2965   53.6042 H   0  0  0  0  0  0  0  0  0  0  0  0
    2.7226   43.3723   54.1699 H   0  0  0  0  0  0  0  0  0  0  0  0
    1.0691   43.8828   54.4911 H   0  0  0  0  0  0  0  0  0  0  0  0
    2.0986   41.7507   52.5545 H   0  0  0  0  0  0  0  0  0  0  0  0
    0.6753   41.6595   53.5680 H   0  0  0  0  0  0  0  0  0  0  0  0
    0.3723   42.2512   50.9540 H   0  0  0  0  0  0  0  0  0  0  0  0
   -0.5874   43.1872   52.0790 H   0  0  0  0  0  0  0  0  0  0  0  0
    2.0220   43.9280   50.6618 H   0  0  0  0  0  0  0  0  0  0  0  0
    0.6447   44.9764   50.9787 H   0  0  0  0  0  0  0  0  0  0  0  0
  1  2  2  0
  2  3  1  0
  3  4  1  0
  4  5  1  0
  5  6  2  0
  6  7  1  0
  7  8  1  0
  8  9  1  0
  9 10  2  0
 10 11  1  0
 11 12  2  0
 12 13  1  0
 13 14  2  0
  7 15  2  0
 15 16  1  0
 16 17  2  0
 17 18  1  0
 18 19  2  0
 19 20  1  0
 20 21  2  0
  2 22  1  0
 22 23  1  0
 23 24  1  0
 24 25  1  0
 25 26  1  0
 21  5  1  0
 26 22  1  0
 14  9  1  0
 20 15  1  0
  3 27  1  0
  3 28  1  0
  8 29  1  0
 10 30  1  0
 11 31  1  0
 12 32  1  0
 13 33  1  0
 14 34  1  0
 16 35  1  0
 17 36  1  0
 18 37  1  0
 19 38  1  0
 23 39  1  0
 23 40  1  0
 24 41  1  0
 24 42  1  0
 25 43  1  0
 25 44  1  0
 26 45  1  0
 26 46  1  0
M  END
>  <meeko>  (275) 
{"is_sidechain": false}

>  <CID>  (275) 
Z24682342

>  <pose_index>  (275) 
6

>  <docking_score>  (275) 
-9.133

>  <rmsd_to_best_selected>  (275) 
0.5916827745427644

>  <MWT>  (275) 
364.4739999999997

>  <TPSA>  (275) 
58.120000000000005

>  <logP>  (275) 
4.087900000000003

>  <HBD>  (275) 
1

>  <HBA>  (275) 
5

>  <SMILES>  (275) 
[H]c1c([H])c([H])c(N([H])c2nc(SC([H])([H])C(=O)N3C([H])([H])C([H])([H])C([H])([H])C3([H])[H])nc3c([H])c([H])c([H])c([H])c23)c([H])c1[H]

$$$$
Z24682342_pose1
     RDKit          3D

 46 49  0  0  0  0  0  0  0  0999 V2000
    2.1630   45.7190   54.7000 O   0  0  0  0  0  0  0  0  0  0  0  0
    2.1740   45.7680   53.4680 C   0  0  0  0  0  0  0  0  0  0  0  0
    2.7590   46.9620   52.7320 C   0  0  0  0  0  0  0  0  0  0  0  0
    4.0180   47.7590   53.7800 S   0  0  0  0  0  0  0  0  0  0  0  0
    5.5180   47.1600   53.0510 C   0  0  0  0  0  0  0  0  0  0  0  0
    5.4540   46.3640   51.9840 N   0  0  0  0  0  0  0  0  0  0  0  0
    6.6060   45.9160   51.4590 C   0  0  0  0  0  0  0  0  0  0  0  0
    6.5630   45.0830   50.3080 N   0  0  0  0  0  0  0  0  0  0  0  0
    6.0610   43.7640   50.2040 C   0  0  0  0  0  0  0  0  0  0  0  0
    4.9460   43.3980   50.9710 C   0  0  0  0  0  0  0  0  0  0  0  0
    4.3850   42.1190   50.8710 C   0  0  0  0  0  0  0  0  0  0  0  0
    4.9190   41.1940   49.9790 C   0  0  0  0  0  0  0  0  0  0  0  0
    5.9990   41.5550   49.1790 C   0  0  0  0  0  0  0  0  0  0  0  0
    6.5540   42.8340   49.2830 C   0  0  0  0  0  0  0  0  0  0  0  0
    7.8530   46.2620   52.0070 C   0  0  0  0  0  0  0  0  0  0  0  0
    9.1140   45.8140   51.5320 C   0  0  0  0  0  0  0  0  0  0  0  0
   10.2950   46.2240   52.1440 C   0  0  0  0  0  0  0  0  0  0  0  0
   10.2350   47.0800   53.2340 C   0  0  0  0  0  0  0  0  0  0  0  0
    8.9930   47.5100   53.7090 C   0  0  0  0  0  0  0  0  0  0  0  0
    7.8000   47.1140   53.1160 C   0  0  0  0  0  0  0  0  0  0  0  0
    6.6540   47.5620   53.6320 N   0  0  0  0  0  0  0  0  0  0  0  0
    1.6640   44.7360   52.7070 N   0  0  0  0  0  0  0  0  0  0  0  0
    1.1190   43.5430   53.3310 C   0  0  0  0  0  0  0  0  0  0  0  0
    0.9240   42.5680   52.1790 C   0  0  0  0  0  0  0  0  0  0  0  0
    0.6260   43.4890   51.0050 C   0  0  0  0  0  0  0  0  0  0  0  0
    1.5480   44.6740   51.2590 C   0  0  0  0  0  0  0  0  0  0  0  0
    3.2228   46.6238   51.7936 H   0  0  0  0  0  0  0  0  0  0  0  0
    1.9593   47.6824   52.5051 H   0  0  0  0  0  0  0  0  0  0  0  0
    6.3090   45.6400   49.5020 H   0  0  0  0  0  0  0  0  0  0  0  0
    4.5038   44.1289   51.6640 H   0  0  0  0  0  0  0  0  0  0  0  0
    3.5228   41.8456   51.4971 H   0  0  0  0  0  0  0  0  0  0  0  0
    4.4901   40.1837   49.9067 H   0  0  0  0  0  0  0  0  0  0  0  0
    6.4171   40.8322   48.4630 H   0  0  0  0  0  0  0  0  0  0  0  0
    7.3931   43.1138   48.6290 H   0  0  0  0  0  0  0  0  0  0  0  0
    9.1581   45.1337   50.6687 H   0  0  0  0  0  0  0  0  0  0  0  0
   11.2667   45.8726   51.7669 H   0  0  0  0  0  0  0  0  0  0  0  0
   11.1607   47.4187   53.7222 H   0  0  0  0  0  0  0  0  0  0  0  0
    8.9586   48.1825   54.5788 H   0  0  0  0  0  0  0  0  0  0  0  0
    1.8229   43.1349   54.0713 H   0  0  0  0  0  0  0  0  0  0  0  0
    0.1831   43.7438   53.8730 H   0  0  0  0  0  0  0  0  0  0  0  0
    1.8357   41.9794   51.9994 H   0  0  0  0  0  0  0  0  0  0  0  0
    0.1315   41.8279   52.3641 H   0  0  0  0  0  0  0  0  0  0  0  0
    0.8639   43.0005   50.0486 H   0  0  0  0  0  0  0  0  0  0  0  0
   -0.4346   43.7717   50.9332 H   0  0  0  0  0  0  0  0  0  0  0  0
    2.5320   44.5082   50.7961 H   0  0  0  0  0  0  0  0  0  0  0  0
    1.1591   45.6085   50.8285 H   0  0  0  0  0  0  0  0  0  0  0  0
  1  2  2  0
  2  3  1  0
  3  4  1  0
  4  5  1  0
  5  6  2  0
  6  7  1  0
  7  8  1  0
  8  9  1  0
  9 10  2  0
 10 11  1  0
 11 12  2  0
 12 13  1  0
 13 14  2  0
  7 15  2  0
 15 16  1  0
 16 17  2  0
 17 18  1  0
 18 19  2  0
 19 20  1  0
 20 21  2  0
  2 22  1  0
 22 23  1  0
 23 24  1  0
 24 25  1  0
 25 26  1  0
 21  5  1  0
 26 22  1  0
 14  9  1  0
 20 15  1  0
  3 27  1  0
  3 28  1  0
  8 29  1  0
 10 30  1  0
 11 31  1  0
 12 32  1  0
 13 33  1  0
 14 34  1  0
 16 35  1  0
 17 36  1  0
 18 37  1  0
 19 38  1  0
 23 39  1  0
 23 40  1  0
 24 41  1  0
 24 42  1  0
 25 43  1  0
 25 44  1  0
 26 45  1  0
 26 46  1  0
M  END
>  <meeko>  (276) 
{"is_sidechain": false}

>  <CID>  (276) 
Z24682342

>  <pose_index>  (276) 
1

>  <docking_score>  (276) 
-10.003

>  <rmsd_to_best_selected>  (276) 
0.0

>  <MWT>  (276) 
364.4739999999997

>  <TPSA>  (276) 
58.120000000000005

>  <logP>  (276) 
4.087900000000003

>  <HBD>  (276) 
1

>  <HBA>  (276) 
5

>  <SMILES>  (276) 
[H]c1c([H])c([H])c(N([H])c2nc(SC([H])([H])C(=O)N3C([H])([H])C([H])([H])C([H])([H])C3([H])[H])nc3c([H])c([H])c([H])c([H])c23)c([H])c1[H]

$$$$
Z24682342_pose2
     RDKit          3D

 46 49  0  0  0  0  0  0  0  0999 V2000
    2.1692   47.1363   51.7387 O   0  0  0  0  0  0  0  0  0  0  0  0
    2.2206   46.1615   52.4919 C   0  0  0  0  0  0  0  0  0  0  0  0
    3.0267   46.2021   53.7799 C   0  0  0  0  0  0  0  0  0  0  0  0
    4.0479   47.7107   53.8051 S   0  0  0  0  0  0  0  0  0  0  0  0
    5.5496   47.1353   53.0603 C   0  0  0  0  0  0  0  0  0  0  0  0
    5.4860   46.3335   51.9977 N   0  0  0  0  0  0  0  0  0  0  0  0
    6.6387   45.9039   51.4597 C   0  0  0  0  0  0  0  0  0  0  0  0
    6.5975   45.0649   50.3132 N   0  0  0  0  0  0  0  0  0  0  0  0
    6.0803   43.7524   50.2112 C   0  0  0  0  0  0  0  0  0  0  0  0
    6.8708   42.7516   49.6278 C   0  0  0  0  0  0  0  0  0  0  0  0
    6.4211   41.4283   49.5446 C   0  0  0  0  0  0  0  0  0  0  0  0
    5.1805   41.0812   50.0687 C   0  0  0  0  0  0  0  0  0  0  0  0
    4.4003   42.0527   50.6906 C   0  0  0  0  0  0  0  0  0  0  0  0
    4.8553   43.3717   50.7716 C   0  0  0  0  0  0  0  0  0  0  0  0
    7.8864   46.2744   51.9907 C   0  0  0  0  0  0  0  0  0  0  0  0
    9.1487   45.8468   51.5018 C   0  0  0  0  0  0  0  0  0  0  0  0
   10.3307   46.2810   52.0975 C   0  0  0  0  0  0  0  0  0  0  0  0
   10.2692   47.1400   53.1852 C   0  0  0  0  0  0  0  0  0  0  0  0
    9.0250   47.5503   53.6737 C   0  0  0  0  0  0  0  0  0  0  0  0
    7.8320   47.1303   53.0977 C   0  0  0  0  0  0  0  0  0  0  0  0
    6.6854   47.5598   53.6251 N   0  0  0  0  0  0  0  0  0  0  0  0
    1.5391   44.9969   52.2015 N   0  0  0  0  0  0  0  0  0  0  0  0
    0.7165   44.8871   51.0091 C   0  0  0  0  0  0  0  0  0  0  0  0
   -0.0526   43.5873   51.1981 C   0  0  0  0  0  0  0  0  0  0  0  0
    0.9155   42.7380   52.0096 C   0  0  0  0  0  0  0  0  0  0  0  0
    1.5517   43.7517   52.9510 C   0  0  0  0  0  0  0  0  0  0  0  0
    2.3427   46.2072   54.6413 H   0  0  0  0  0  0  0  0  0  0  0  0
    3.6769   45.3165   53.8352 H   0  0  0  0  0  0  0  0  0  0  0  0
    6.3571   45.6213   49.5015 H   0  0  0  0  0  0  0  0  0  0  0  0
    7.8622   43.0110   49.2282 H   0  0  0  0  0  0  0  0  0  0  0  0
    7.0490   40.6632   49.0648 H   0  0  0  0  0  0  0  0  0  0  0  0
    4.8178   40.0455   49.9925 H   0  0  0  0  0  0  0  0  0  0  0  0
    3.4241   41.7815   51.1188 H   0  0  0  0  0  0  0  0  0  0  0  0
    4.2394   44.1246   51.2853 H   0  0  0  0  0  0  0  0  0  0  0  0
    9.1941   45.1633   50.6411 H   0  0  0  0  0  0  0  0  0  0  0  0
   11.3038   45.9459   51.7090 H   0  0  0  0  0  0  0  0  0  0  0  0
   11.1947   47.4965   53.6610 H   0  0  0  0  0  0  0  0  0  0  0  0
    8.9894   48.2264   54.5406 H   0  0  0  0  0  0  0  0  0  0  0  0
    0.0262   45.7401   50.9325 H   0  0  0  0  0  0  0  0  0  0  0  0
    1.3142   44.8901   50.0857 H   0  0  0  0  0  0  0  0  0  0  0  0
   -0.9889   43.7574   51.7498 H   0  0  0  0  0  0  0  0  0  0  0  0
   -0.3545   43.1180   50.2501 H   0  0  0  0  0  0  0  0  0  0  0  0
    0.3817   41.9572   52.5712 H   0  0  0  0  0  0  0  0  0  0  0  0
    1.6487   42.2025   51.3887 H   0  0  0  0  0  0  0  0  0  0  0  0
    0.9632   43.8476   53.8754 H   0  0  0  0  0  0  0  0  0  0  0  0
    2.5656   43.4583   53.2607 H   0  0  0  0  0  0  0  0  0  0  0  0
  1  2  2  0
  2  3  1  0
  3  4  1  0
  4  5  1  0
  5  6  2  0
  6  7  1  0
  7  8  1  0
  8  9  1  0
  9 10  2  0
 10 11  1  0
 11 12  2  0
 12 13  1  0
 13 14  2  0
  7 15  2  0
 15 16  1  0
 16 17  2  0
 17 18  1  0
 18 19  2  0
 19 20  1  0
 20 21  2  0
  2 22  1  0
 22 23  1  0
 23 24  1  0
 24 25  1  0
 25 26  1  0
 21  5  1  0
 26 22  1  0
 14  9  1  0
 20 15  1  0
  3 27  1  0
  3 28  1  0
  8 29  1  0
 10 30  1  0
 11 31  1  0
 12 32  1  0
 13 33  1  0
 14 34  1  0
 16 35  1  0
 17 36  1  0
 18 37  1  0
 19 38  1  0
 23 39  1  0
 23 40  1  0
 24 41  1  0
 24 42  1  0
 25 43  1  0
 25 44  1  0
 26 45  1  0
 26 46  1  0
M  END
>  <meeko>  (277) 
{"is_sidechain": false}

>  <CID>  (277) 
Z24682342

>  <pose_index>  (277) 
2

>  <docking_score>  (277) 
-9.918

>  <rmsd_to_best_selected>  (277) 
0.9305704709206092

>  <MWT>  (277) 
364.4739999999997

>  <TPSA>  (277) 
58.120000000000005

>  <logP>  (277) 
4.087900000000003

>  <HBD>  (277) 
1

>  <HBA>  (277) 
5

>  <SMILES>  (277) 
[H]c1c([H])c([H])c(N([H])c2nc(SC([H])([H])C(=O)N3C([H])([H])C([H])([H])C([H])([H])C3([H])[H])nc3c([H])c([H])c([H])c([H])c23)c([H])c1[H]

$$$$
Z24682342_pose7
     RDKit          3D

 46 49  0  0  0  0  0  0  0  0999 V2000
    1.5977   47.0605   52.0426 O   0  0  0  0  0  0  0  0  0  0  0  0
    1.9761   45.9825   52.5081 C   0  0  0  0  0  0  0  0  0  0  0  0
    3.1888   45.9006   53.4194 C   0  0  0  0  0  0  0  0  0  0  0  0
    4.0263   47.5174   53.4573 S   0  0  0  0  0  0  0  0  0  0  0  0
    5.5935   47.1224   52.7295 C   0  0  0  0  0  0  0  0  0  0  0  0
    5.6980   46.0502   51.9444 N   0  0  0  0  0  0  0  0  0  0  0  0
    6.8984   45.7682   51.4138 C   0  0  0  0  0  0  0  0  0  0  0  0
    7.0296   44.6421   50.5579 N   0  0  0  0  0  0  0  0  0  0  0  0
    6.4687   43.3531   50.7201 C   0  0  0  0  0  0  0  0  0  0  0  0
    5.3059   43.2078   51.4905 C   0  0  0  0  0  0  0  0  0  0  0  0
    4.6892   41.9616   51.6433 C   0  0  0  0  0  0  0  0  0  0  0  0
    5.2130   40.8425   51.0046 C   0  0  0  0  0  0  0  0  0  0  0  0
    6.3421   40.9761   50.2010 C   0  0  0  0  0  0  0  0  0  0  0  0
    6.9537   42.2237   50.0509 C   0  0  0  0  0  0  0  0  0  0  0  0
    8.0260   46.5674   51.6716 C   0  0  0  0  0  0  0  0  0  0  0  0
    9.3349   46.3274   51.1751 C   0  0  0  0  0  0  0  0  0  0  0  0
   10.3855   47.1888   51.4837 C   0  0  0  0  0  0  0  0  0  0  0  0
   10.1465   48.2916   52.2905 C   0  0  0  0  0  0  0  0  0  0  0  0
    8.8609   48.5187   52.7902 C   0  0  0  0  0  0  0  0  0  0  0  0
    7.7966   47.6742   52.4965 C   0  0  0  0  0  0  0  0  0  0  0  0
    6.6009   47.9546   53.0170 N   0  0  0  0  0  0  0  0  0  0  0  0
    1.3065   44.8081   52.2268 N   0  0  0  0  0  0  0  0  0  0  0  0
    0.1169   44.8051   51.3937 C   0  0  0  0  0  0  0  0  0  0  0  0
   -0.4519   43.4024   51.5535 C   0  0  0  0  0  0  0  0  0  0  0  0
    0.7919   42.5568   51.7840 C   0  0  0  0  0  0  0  0  0  0  0  0
    1.6630   43.4629   52.6450 C   0  0  0  0  0  0  0  0  0  0  0  0
    2.8667   45.6300   54.4358 H   0  0  0  0  0  0  0  0  0  0  0  0
    3.8827   45.1359   53.0402 H   0  0  0  0  0  0  0  0  0  0  0  0
    6.9810   44.9487   49.5939 H   0  0  0  0  0  0  0  0  0  0  0  0
    4.8709   44.0897   51.9835 H   0  0  0  0  0  0  0  0  0  0  0  0
    3.7894   41.8665   52.2688 H   0  0  0  0  0  0  0  0  0  0  0  0
    4.7384   39.8586   51.1336 H   0  0  0  0  0  0  0  0  0  0  0  0
    6.7538   40.0974   49.6828 H   0  0  0  0  0  0  0  0  0  0  0  0
    7.8318   42.3196   49.3953 H   0  0  0  0  0  0  0  0  0  0  0  0
    9.5216   45.4499   50.5386 H   0  0  0  0  0  0  0  0  0  0  0  0
   11.3949   46.9963   51.0913 H   0  0  0  0  0  0  0  0  0  0  0  0
   10.9650   48.9843   52.5359 H   0  0  0  0  0  0  0  0  0  0  0  0
    8.6862   49.3923   53.4354 H   0  0  0  0  0  0  0  0  0  0  0  0
   -0.6040   45.5596   51.7415 H   0  0  0  0  0  0  0  0  0  0  0  0
    0.3383   45.0514   50.3448 H   0  0  0  0  0  0  0  0  0  0  0  0
   -1.1335   43.3473   52.4151 H   0  0  0  0  0  0  0  0  0  0  0  0
   -1.0472   43.0735   50.6889 H   0  0  0  0  0  0  0  0  0  0  0  0
    0.5447   41.6251   52.3140 H   0  0  0  0  0  0  0  0  0  0  0  0
    1.2819   42.2405   50.8514 H   0  0  0  0  0  0  0  0  0  0  0  0
    1.4424   43.3156   53.7125 H   0  0  0  0  0  0  0  0  0  0  0  0
    2.7361   43.2552   52.5210 H   0  0  0  0  0  0  0  0  0  0  0  0
  1  2  2  0
  2  3  1  0
  3  4  1  0
  4  5  1  0
  5  6  2  0
  6  7  1  0
  7  8  1  0
  8  9  1  0
  9 10  2  0
 10 11  1  0
 11 12  2  0
 12 13  1  0
 13 14  2  0
  7 15  2  0
 15 16  1  0
 16 17  2  0
 17 18  1  0
 18 19  2  0
 19 20  1  0
 20 21  2  0
  2 22  1  0
 22 23  1  0
 23 24  1  0
 24 25  1  0
 25 26  1  0
 21  5  1  0
 26 22  1  0
 14  9  1  0
 20 15  1  0
  3 27  1  0
  3 28  1  0
  8 29  1  0
 10 30  1  0
 11 31  1  0
 12 32  1  0
 13 33  1  0
 14 34  1  0
 16 35  1  0
 17 36  1  0
 18 37  1  0
 19 38  1  0
 23 39  1  0
 23 40  1  0
 24 41  1  0
 24 42  1  0
 25 43  1  0
 25 44  1  0
 26 45  1  0
 26 46  1  0
M  END
>  <meeko>  (278) 
{"is_sidechain": false}

>  <CID>  (278) 
Z24682342

>  <pose_index>  (278) 
7

>  <docking_score>  (278) 
-9.113

>  <rmsd_to_best_selected>  (278) 
1.2124782834822279

>  <MWT>  (278) 
364.4739999999997

>  <TPSA>  (278) 
58.120000000000005

>  <logP>  (278) 
4.087900000000003

>  <HBD>  (278) 
1

>  <HBA>  (278) 
5

>  <SMILES>  (278) 
[H]c1c([H])c([H])c(N([H])c2nc(SC([H])([H])C(=O)N3C([H])([H])C([H])([H])C([H])([H])C3([H])[H])nc3c([H])c([H])c([H])c([H])c23)c([H])c1[H]

$$$$
Z24682342_pose9
     RDKit          3D

 46 49  0  0  0  0  0  0  0  0999 V2000
    0.1969   46.0338   53.4904 O   0  0  0  0  0  0  0  0  0  0  0  0
    1.2624   45.9404   52.8764 C   0  0  0  0  0  0  0  0  0  0  0  0
    2.2584   47.0890   52.8495 C   0  0  0  0  0  0  0  0  0  0  0  0
    3.3561   46.9688   54.2984 S   0  0  0  0  0  0  0  0  0  0  0  0
    4.9294   46.6951   53.5299 C   0  0  0  0  0  0  0  0  0  0  0  0
    5.3415   45.4467   53.3133 N   0  0  0  0  0  0  0  0  0  0  0  0
    6.5423   45.2675   52.7389 C   0  0  0  0  0  0  0  0  0  0  0  0
    6.9944   43.9447   52.4780 N   0  0  0  0  0  0  0  0  0  0  0  0
    6.3798   42.9550   51.6763 C   0  0  0  0  0  0  0  0  0  0  0  0
    6.3993   43.0997   50.2815 C   0  0  0  0  0  0  0  0  0  0  0  0
    5.8423   42.1259   49.4444 C   0  0  0  0  0  0  0  0  0  0  0  0
    5.2799   40.9770   49.9920 C   0  0  0  0  0  0  0  0  0  0  0  0
    5.2908   40.7964   51.3725 C   0  0  0  0  0  0  0  0  0  0  0  0
    5.8491   41.7722   52.2035 C   0  0  0  0  0  0  0  0  0  0  0  0
    7.3571   46.3525   52.3753 C   0  0  0  0  0  0  0  0  0  0  0  0
    8.6476   46.2528   51.7895 C   0  0  0  0  0  0  0  0  0  0  0  0
    9.3715   47.3960   51.4582 C   0  0  0  0  0  0  0  0  0  0  0  0
    8.8233   48.6455   51.7073 C   0  0  0  0  0  0  0  0  0  0  0  0
    7.5594   48.7419   52.2955 C   0  0  0  0  0  0  0  0  0  0  0  0
    6.8177   47.6167   52.6372 C   0  0  0  0  0  0  0  0  0  0  0  0
    5.6212   47.7910   53.2018 N   0  0  0  0  0  0  0  0  0  0  0  0
    1.5992   44.7874   52.1963 N   0  0  0  0  0  0  0  0  0  0  0  0
    0.7193   43.6313   52.2018 C   0  0  0  0  0  0  0  0  0  0  0  0
    1.5562   42.5173   51.5882 C   0  0  0  0  0  0  0  0  0  0  0  0
    2.4624   43.2682   50.6239 C   0  0  0  0  0  0  0  0  0  0  0  0
    2.7790   44.5507   51.3820 C   0  0  0  0  0  0  0  0  0  0  0  0
    2.8579   47.0339   51.9289 H   0  0  0  0  0  0  0  0  0  0  0  0
    1.7173   48.0463   52.8759 H   0  0  0  0  0  0  0  0  0  0  0  0
    7.9987   43.9554   52.3482 H   0  0  0  0  0  0  0  0  0  0  0  0
    6.8603   43.9943   49.8375 H   0  0  0  0  0  0  0  0  0  0  0  0
    5.8493   42.2689   48.3537 H   0  0  0  0  0  0  0  0  0  0  0  0
    4.8292   40.2158   49.3380 H   0  0  0  0  0  0  0  0  0  0  0  0
    4.8594   39.8841   51.8102 H   0  0  0  0  0  0  0  0  0  0  0  0
    5.8715   41.6075   53.2908 H   0  0  0  0  0  0  0  0  0  0  0  0
    9.0805   45.2604   51.5951 H   0  0  0  0  0  0  0  0  0  0  0  0
   10.3690   47.3085   51.0030 H   0  0  0  0  0  0  0  0  0  0  0  0
    9.3808   49.5562   51.4431 H   0  0  0  0  0  0  0  0  0  0  0  0
    7.1385   49.7385   52.4944 H   0  0  0  0  0  0  0  0  0  0  0  0
    0.4209   43.3738   53.2287 H   0  0  0  0  0  0  0  0  0  0  0  0
   -0.2130   43.8106   51.6462 H   0  0  0  0  0  0  0  0  0  0  0  0
    2.1431   41.9935   52.3570 H   0  0  0  0  0  0  0  0  0  0  0  0
    0.9527   41.7374   51.1008 H   0  0  0  0  0  0  0  0  0  0  0  0
    3.3782   42.6959   50.4148 H   0  0  0  0  0  0  0  0  0  0  0  0
    1.9987   43.4471   49.6426 H   0  0  0  0  0  0  0  0  0  0  0  0
    3.6692   44.4197   52.0147 H   0  0  0  0  0  0  0  0  0  0  0  0
    3.0010   45.3924   50.7094 H   0  0  0  0  0  0  0  0  0  0  0  0
  1  2  2  0
  2  3  1  0
  3  4  1  0
  4  5  1  0
  5  6  2  0
  6  7  1  0
  7  8  1  0
  8  9  1  0
  9 10  2  0
 10 11  1  0
 11 12  2  0
 12 13  1  0
 13 14  2  0
  7 15  2  0
 15 16  1  0
 16 17  2  0
 17 18  1  0
 18 19  2  0
 19 20  1  0
 20 21  2  0
  2 22  1  0
 22 23  1  0
 23 24  1  0
 24 25  1  0
 25 26  1  0
 21  5  1  0
 26 22  1  0
 14  9  1  0
 20 15  1  0
  3 27  1  0
  3 28  1  0
  8 29  1  0
 10 30  1  0
 11 31  1  0
 12 32  1  0
 13 33  1  0
 14 34  1  0
 16 35  1  0
 17 36  1  0
 18 37  1  0
 19 38  1  0
 23 39  1  0
 23 40  1  0
 24 41  1  0
 24 42  1  0
 25 43  1  0
 25 44  1  0
 26 45  1  0
 26 46  1  0
M  END
>  <meeko>  (279) 
{"is_sidechain": false}

>  <CID>  (279) 
Z24682342

>  <pose_index>  (279) 
9

>  <docking_score>  (279) 
-8.928

>  <rmsd_to_best_selected>  (279) 
1.6404836160213225

>  <MWT>  (279) 
364.4739999999997

>  <TPSA>  (279) 
58.120000000000005

>  <logP>  (279) 
4.087900000000003

>  <HBD>  (279) 
1

>  <HBA>  (279) 
5

>  <SMILES>  (279) 
[H]c1c([H])c([H])c(N([H])c2nc(SC([H])([H])C(=O)N3C([H])([H])C([H])([H])C([H])([H])C3([H])[H])nc3c([H])c([H])c([H])c([H])c23)c([H])c1[H]

$$$$
Z25402869_pose3
     RDKit          3D

 47 50  0  0  0  0  0  0  0  0999 V2000
    2.3020   42.5402   53.1514 O   0  0  0  0  0  0  0  0  0  0  0  0
    2.4038   43.7351   52.8889 C   0  0  0  0  0  0  0  0  0  0  0  0
    1.3468   44.7523   53.2838 C   0  0  0  0  0  0  0  0  0  0  0  0
    1.5550   45.2933   54.9989 S   0  0  0  0  0  0  0  0  0  0  0  0
    3.2697   45.6223   55.0252 C   0  0  0  0  0  0  0  0  0  0  0  0
    3.7681   46.7187   54.5043 N   0  0  0  0  0  0  0  0  0  0  0  0
    5.1406   46.7697   54.6366 N   0  0  0  0  0  0  0  0  0  0  0  0
    5.6359   45.7361   55.2878 C   0  0  0  0  0  0  0  0  0  0  0  0
    6.9623   45.5896   55.5328 N   0  0  0  0  0  0  0  0  0  0  0  0
    8.0235   45.7061   54.5994 C   0  0  0  0  0  0  0  0  0  0  0  0
    8.1524   46.9257   53.9098 C   0  0  0  0  0  0  0  0  0  0  0  0
    9.1730   47.1237   52.9730 C   0  0  0  0  0  0  0  0  0  0  0  0
   10.0807   46.1018   52.7061 C   0  0  0  0  0  0  0  0  0  0  0  0
    9.9640   44.8832   53.3726 C   0  0  0  0  0  0  0  0  0  0  0  0
    8.9385   44.6870   54.3054 C   0  0  0  0  0  0  0  0  0  0  0  0
    4.4319   44.5657   55.7034 S   0  0  0  0  0  0  0  0  0  0  0  0
    3.4689   44.2669   52.1904 N   0  0  0  0  0  0  0  0  0  0  0  0
    4.5770   43.4366   51.7310 C   0  0  0  0  0  0  0  0  0  0  0  0
    5.9301   43.9814   52.2166 C   0  0  0  0  0  0  0  0  0  0  0  0
    6.3665   45.1882   51.3896 C   0  0  0  0  0  0  0  0  0  0  0  0
    6.5539   44.7994   49.9250 C   0  0  0  0  0  0  0  0  0  0  0  0
    5.3988   43.9999   49.3713 C   0  0  0  0  0  0  0  0  0  0  0  0
    5.2653   43.8718   47.9768 C   0  0  0  0  0  0  0  0  0  0  0  0
    4.2418   43.0978   47.4238 C   0  0  0  0  0  0  0  0  0  0  0  0
    3.3446   42.4367   48.2558 C   0  0  0  0  0  0  0  0  0  0  0  0
    3.4702   42.5487   49.6427 C   0  0  0  0  0  0  0  0  0  0  0  0
    4.4986   43.3219   50.2170 C   0  0  0  0  0  0  0  0  0  0  0  0
    1.4267   45.6265   52.6210 H   0  0  0  0  0  0  0  0  0  0  0  0
    0.3588   44.2781   53.1889 H   0  0  0  0  0  0  0  0  0  0  0  0
    7.1571   44.8175   56.1650 H   0  0  0  0  0  0  0  0  0  0  0  0
    7.4383   47.7379   54.1104 H   0  0  0  0  0  0  0  0  0  0  0  0
    9.2583   48.0863   52.4476 H   0  0  0  0  0  0  0  0  0  0  0  0
   10.8860   46.2557   51.9727 H   0  0  0  0  0  0  0  0  0  0  0  0
   10.6794   44.0737   53.1652 H   0  0  0  0  0  0  0  0  0  0  0  0
    8.8499   43.7166   54.8158 H   0  0  0  0  0  0  0  0  0  0  0  0
    3.5889   45.2658   52.1284 H   0  0  0  0  0  0  0  0  0  0  0  0
    4.4950   42.4290   52.1646 H   0  0  0  0  0  0  0  0  0  0  0  0
    5.8385   44.2826   53.2706 H   0  0  0  0  0  0  0  0  0  0  0  0
    6.6856   43.1899   52.1044 H   0  0  0  0  0  0  0  0  0  0  0  0
    5.5971   45.9712   51.4597 H   0  0  0  0  0  0  0  0  0  0  0  0
    7.3248   45.5584   51.7827 H   0  0  0  0  0  0  0  0  0  0  0  0
    6.6606   45.7183   49.3299 H   0  0  0  0  0  0  0  0  0  0  0  0
    7.4501   44.1642   49.8666 H   0  0  0  0  0  0  0  0  0  0  0  0
    5.9754   44.3874   47.3135 H   0  0  0  0  0  0  0  0  0  0  0  0
    4.1458   43.0115   46.3314 H   0  0  0  0  0  0  0  0  0  0  0  0
    2.5379   41.8269   47.8228 H   0  0  0  0  0  0  0  0  0  0  0  0
    2.7560   42.0257   50.2957 H   0  0  0  0  0  0  0  0  0  0  0  0
  1  2  2  0
  2  3  1  0
  3  4  1  0
  4  5  1  0
  5  6  2  0
  6  7  1  0
  7  8  2  0
  8  9  1  0
  9 10  1  0
 10 11  2  0
 11 12  1  0
 12 13  2  0
 13 14  1  0
 14 15  2  0
  8 16  1  0
  2 17  1  0
 17 18  1  0
 18 19  1  0
 19 20  1  0
 20 21  1  0
 21 22  1  0
 22 23  2  0
 23 24  1  0
 24 25  2  0
 25 26  1  0
 26 27  2  0
 16  5  1  0
 27 18  1  0
 15 10  1  0
 27 22  1  0
  3 28  1  0
  3 29  1  0
  9 30  1  0
 11 31  1  0
 12 32  1  0
 13 33  1  0
 14 34  1  0
 15 35  1  0
 17 36  1  0
 18 37  1  0
 19 38  1  0
 19 39  1  0
 20 40  1  0
 20 41  1  0
 21 42  1  0
 21 43  1  0
 23 44  1  0
 24 45  1  0
 25 46  1  0
 26 47  1  0
M  END
>  <meeko>  (280) 
{"is_sidechain": false}

>  <CID>  (280) 
Z25402869

>  <pose_index>  (280) 
3

>  <docking_score>  (280) 
-8.493

>  <rmsd_to_best_selected>  (280) 
0.0

>  <MWT>  (280) 
396.5409999999998

>  <TPSA>  (280) 
66.91

>  <logP>  (280) 
4.567600000000003

>  <HBD>  (280) 
2

>  <HBA>  (280) 
6

>  <SMILES>  (280) 
[H]c1c([H])c([H])c(N([H])c2nnc(SC([H])([H])C(=O)N([H])C3([H])c4c([H])c([H])c([H])c([H])c4C([H])([H])C([H])([H])C3([H])[H])s2)c([H])c1[H]

$$$$
Z25402869_pose4
     RDKit          3D

 47 50  0  0  0  0  0  0  0  0999 V2000
    1.8130   42.7828   52.6293 O   0  0  0  0  0  0  0  0  0  0  0  0
    2.4599   43.8254   52.6690 C   0  0  0  0  0  0  0  0  0  0  0  0
    1.9573   45.0728   53.3772 C   0  0  0  0  0  0  0  0  0  0  0  0
    1.9132   44.8431   55.1721 S   0  0  0  0  0  0  0  0  0  0  0  0
    3.4619   45.5157   55.6187 C   0  0  0  0  0  0  0  0  0  0  0  0
    3.5884   46.3366   56.6354 N   0  0  0  0  0  0  0  0  0  0  0  0
    4.8955   46.7435   56.8047 N   0  0  0  0  0  0  0  0  0  0  0  0
    5.7257   46.1893   55.9433 C   0  0  0  0  0  0  0  0  0  0  0  0
    7.0575   46.4480   55.9372 N   0  0  0  0  0  0  0  0  0  0  0  0
    7.9229   46.4564   54.8143 C   0  0  0  0  0  0  0  0  0  0  0  0
    9.3079   46.4626   55.0615 C   0  0  0  0  0  0  0  0  0  0  0  0
   10.2317   46.4692   54.0101 C   0  0  0  0  0  0  0  0  0  0  0  0
    9.7843   46.4741   52.6902 C   0  0  0  0  0  0  0  0  0  0  0  0
    8.4158   46.4783   52.4258 C   0  0  0  0  0  0  0  0  0  0  0  0
    7.4939   46.4760   53.4800 C   0  0  0  0  0  0  0  0  0  0  0  0
    4.9196   45.1872   54.7861 S   0  0  0  0  0  0  0  0  0  0  0  0
    3.6857   43.9772   52.0544 N   0  0  0  0  0  0  0  0  0  0  0  0
    4.3205   42.8841   51.3270 C   0  0  0  0  0  0  0  0  0  0  0  0
    5.7462   42.6186   51.8382 C   0  0  0  0  0  0  0  0  0  0  0  0
    6.7239   43.6647   51.3096 C   0  0  0  0  0  0  0  0  0  0  0  0
    6.7925   43.6175   49.7835 C   0  0  0  0  0  0  0  0  0  0  0  0
    5.4313   43.5929   49.1303 C   0  0  0  0  0  0  0  0  0  0  0  0
    5.3280   43.8963   47.7601 C   0  0  0  0  0  0  0  0  0  0  0  0
    4.0962   43.8345   47.1050 C   0  0  0  0  0  0  0  0  0  0  0  0
    2.9539   43.4623   47.8067 C   0  0  0  0  0  0  0  0  0  0  0  0
    3.0441   43.1492   49.1653 C   0  0  0  0  0  0  0  0  0  0  0  0
    4.2789   43.2040   49.8412 C   0  0  0  0  0  0  0  0  0  0  0  0
    2.6271   45.9127   53.1406 H   0  0  0  0  0  0  0  0  0  0  0  0
    0.9341   45.2786   53.0300 H   0  0  0  0  0  0  0  0  0  0  0  0
    7.5378   46.0238   56.7265 H   0  0  0  0  0  0  0  0  0  0  0  0
    9.6713   46.4623   56.0998 H   0  0  0  0  0  0  0  0  0  0  0  0
   11.3105   46.4705   54.2254 H   0  0  0  0  0  0  0  0  0  0  0  0
   10.5075   46.4746   51.8614 H   0  0  0  0  0  0  0  0  0  0  0  0
    8.0586   46.4836   51.3854 H   0  0  0  0  0  0  0  0  0  0  0  0
    6.4167   46.4898   53.2575 H   0  0  0  0  0  0  0  0  0  0  0  0
    4.2493   44.7936   52.2361 H   0  0  0  0  0  0  0  0  0  0  0  0
    3.7684   41.9486   51.5005 H   0  0  0  0  0  0  0  0  0  0  0  0
    5.7453   42.6511   52.9378 H   0  0  0  0  0  0  0  0  0  0  0  0
    6.0666   41.6290   51.4806 H   0  0  0  0  0  0  0  0  0  0  0  0
    6.3893   44.6638   51.6254 H   0  0  0  0  0  0  0  0  0  0  0  0
    7.7238   43.4511   51.7153 H   0  0  0  0  0  0  0  0  0  0  0  0
    7.3346   44.5069   49.4297 H   0  0  0  0  0  0  0  0  0  0  0  0
    7.3063   42.6851   49.5067 H   0  0  0  0  0  0  0  0  0  0  0  0
    6.2284   44.1857   47.1983 H   0  0  0  0  0  0  0  0  0  0  0  0
    4.0292   44.0798   46.0348 H   0  0  0  0  0  0  0  0  0  0  0  0
    1.9823   43.4148   47.2932 H   0  0  0  0  0  0  0  0  0  0  0  0
    2.1378   42.8556   49.7151 H   0  0  0  0  0  0  0  0  0  0  0  0
  1  2  2  0
  2  3  1  0
  3  4  1  0
  4  5  1  0
  5  6  2  0
  6  7  1  0
  7  8  2  0
  8  9  1  0
  9 10  1  0
 10 11  2  0
 11 12  1  0
 12 13  2  0
 13 14  1  0
 14 15  2  0
  8 16  1  0
  2 17  1  0
 17 18  1  0
 18 19  1  0
 19 20  1  0
 20 21  1  0
 21 22  1  0
 22 23  2  0
 23 24  1  0
 24 25  2  0
 25 26  1  0
 26 27  2  0
 16  5  1  0
 27 18  1  0
 15 10  1  0
 27 22  1  0
  3 28  1  0
  3 29  1  0
  9 30  1  0
 11 31  1  0
 12 32  1  0
 13 33  1  0
 14 34  1  0
 15 35  1  0
 17 36  1  0
 18 37  1  0
 19 38  1  0
 19 39  1  0
 20 40  1  0
 20 41  1  0
 21 42  1  0
 21 43  1  0
 23 44  1  0
 24 45  1  0
 25 46  1  0
 26 47  1  0
M  END
>  <meeko>  (281) 
{"is_sidechain": false}

>  <CID>  (281) 
Z25402869

>  <pose_index>  (281) 
4

>  <docking_score>  (281) 
-8.415

>  <rmsd_to_best_selected>  (281) 
1.3837514829558364

>  <MWT>  (281) 
396.5409999999998

>  <TPSA>  (281) 
66.91

>  <logP>  (281) 
4.567600000000003

>  <HBD>  (281) 
2

>  <HBA>  (281) 
6

>  <SMILES>  (281) 
[H]c1c([H])c([H])c(N([H])c2nnc(SC([H])([H])C(=O)N([H])C3([H])c4c([H])c([H])c([H])c([H])c4C([H])([H])C([H])([H])C3([H])[H])s2)c([H])c1[H]

$$$$
Z25402869_pose5
     RDKit          3D

 47 50  0  0  0  0  0  0  0  0999 V2000
    2.6831   42.1002   53.3946 O   0  0  0  0  0  0  0  0  0  0  0  0
    2.6221   43.2763   53.0483 C   0  0  0  0  0  0  0  0  0  0  0  0
    1.7256   44.2870   53.7428 C   0  0  0  0  0  0  0  0  0  0  0  0
    2.2902   44.6265   55.4294 S   0  0  0  0  0  0  0  0  0  0  0  0
    3.7413   45.5417   55.1034 C   0  0  0  0  0  0  0  0  0  0  0  0
    3.8646   46.2751   54.0210 N   0  0  0  0  0  0  0  0  0  0  0  0
    5.0891   46.9083   53.9687 N   0  0  0  0  0  0  0  0  0  0  0  0
    5.8383   46.6731   55.0271 C   0  0  0  0  0  0  0  0  0  0  0  0
    7.0790   47.2015   55.1807 N   0  0  0  0  0  0  0  0  0  0  0  0
    8.3078   46.6429   54.7462 C   0  0  0  0  0  0  0  0  0  0  0  0
    9.3455   46.5447   55.6905 C   0  0  0  0  0  0  0  0  0  0  0  0
   10.5897   46.0042   55.3454 C   0  0  0  0  0  0  0  0  0  0  0  0
   10.8184   45.5575   54.0462 C   0  0  0  0  0  0  0  0  0  0  0  0
    9.8049   45.6547   53.0933 C   0  0  0  0  0  0  0  0  0  0  0  0
    8.5628   46.2000   53.4421 C   0  0  0  0  0  0  0  0  0  0  0  0
    5.1085   45.5585   56.1315 S   0  0  0  0  0  0  0  0  0  0  0  0
    3.3373   43.7884   51.9848 N   0  0  0  0  0  0  0  0  0  0  0  0
    4.2480   42.9601   51.2024 C   0  0  0  0  0  0  0  0  0  0  0  0
    5.7122   43.1903   51.6115 C   0  0  0  0  0  0  0  0  0  0  0  0
    6.2481   44.4952   51.0306 C   0  0  0  0  0  0  0  0  0  0  0  0
    6.2235   44.4572   49.5032 C   0  0  0  0  0  0  0  0  0  0  0  0
    4.9061   43.9742   48.9436 C   0  0  0  0  0  0  0  0  0  0  0  0
    4.6155   44.2107   47.5888 C   0  0  0  0  0  0  0  0  0  0  0  0
    3.4316   43.7356   47.0181 C   0  0  0  0  0  0  0  0  0  0  0  0
    2.5297   43.0122   47.7915 C   0  0  0  0  0  0  0  0  0  0  0  0
    2.8110   42.7627   49.1372 C   0  0  0  0  0  0  0  0  0  0  0  0
    4.0007   43.2315   49.7275 C   0  0  0  0  0  0  0  0  0  0  0  0
    1.7322   45.2249   53.1681 H   0  0  0  0  0  0  0  0  0  0  0  0
    0.7101   43.8678   53.7967 H   0  0  0  0  0  0  0  0  0  0  0  0
    7.2086   47.6255   56.0963 H   0  0  0  0  0  0  0  0  0  0  0  0
    9.1764   46.8988   56.7181 H   0  0  0  0  0  0  0  0  0  0  0  0
   11.3867   45.9322   56.1002 H   0  0  0  0  0  0  0  0  0  0  0  0
   11.7943   45.1298   53.7729 H   0  0  0  0  0  0  0  0  0  0  0  0
    9.9812   45.3026   52.0662 H   0  0  0  0  0  0  0  0  0  0  0  0
    7.7746   46.2818   52.6792 H   0  0  0  0  0  0  0  0  0  0  0  0
    3.3762   44.7834   51.8292 H   0  0  0  0  0  0  0  0  0  0  0  0
    4.0519   41.8963   51.4016 H   0  0  0  0  0  0  0  0  0  0  0  0
    5.7757   43.2331   52.7089 H   0  0  0  0  0  0  0  0  0  0  0  0
    6.3181   42.3597   51.2204 H   0  0  0  0  0  0  0  0  0  0  0  0
    5.6233   45.3299   51.3811 H   0  0  0  0  0  0  0  0  0  0  0  0
    7.2876   44.6300   51.3641 H   0  0  0  0  0  0  0  0  0  0  0  0
    6.4135   45.4724   49.1247 H   0  0  0  0  0  0  0  0  0  0  0  0
    6.9977   43.7456   49.1803 H   0  0  0  0  0  0  0  0  0  0  0  0
    5.3282   44.7763   46.9706 H   0  0  0  0  0  0  0  0  0  0  0  0
    3.2132   43.9334   45.9583 H   0  0  0  0  0  0  0  0  0  0  0  0
    1.5970   42.6375   47.3447 H   0  0  0  0  0  0  0  0  0  0  0  0
    2.0930   42.1918   49.7442 H   0  0  0  0  0  0  0  0  0  0  0  0
  1  2  2  0
  2  3  1  0
  3  4  1  0
  4  5  1  0
  5  6  2  0
  6  7  1  0
  7  8  2  0
  8  9  1  0
  9 10  1  0
 10 11  2  0
 11 12  1  0
 12 13  2  0
 13 14  1  0
 14 15  2  0
  8 16  1  0
  2 17  1  0
 17 18  1  0
 18 19  1  0
 19 20  1  0
 20 21  1  0
 21 22  1  0
 22 23  2  0
 23 24  1  0
 24 25  2  0
 25 26  1  0
 26 27  2  0
 16  5  1  0
 27 18  1  0
 15 10  1  0
 27 22  1  0
  3 28  1  0
  3 29  1  0
  9 30  1  0
 11 31  1  0
 12 32  1  0
 13 33  1  0
 14 34  1  0
 15 35  1  0
 17 36  1  0
 18 37  1  0
 19 38  1  0
 19 39  1  0
 20 40  1  0
 20 41  1  0
 21 42  1  0
 21 43  1  0
 23 44  1  0
 24 45  1  0
 25 46  1  0
 26 47  1  0
M  END
>  <meeko>  (282) 
{"is_sidechain": false}

>  <CID>  (282) 
Z25402869

>  <pose_index>  (282) 
5

>  <docking_score>  (282) 
-8.292

>  <rmsd_to_best_selected>  (282) 
1.4568873880400446

>  <MWT>  (282) 
396.5409999999998

>  <TPSA>  (282) 
66.91

>  <logP>  (282) 
4.567600000000003

>  <HBD>  (282) 
2

>  <HBA>  (282) 
6

>  <SMILES>  (282) 
[H]c1c([H])c([H])c(N([H])c2nnc(SC([H])([H])C(=O)N([H])C3([H])c4c([H])c([H])c([H])c([H])c4C([H])([H])C([H])([H])C3([H])[H])s2)c([H])c1[H]

$$$$
Z25402869_pose6
     RDKit          3D

 47 50  0  0  0  0  0  0  0  0999 V2000
    1.3882   42.1759   52.5797 O   0  0  0  0  0  0  0  0  0  0  0  0
    1.9766   43.2062   52.8943 C   0  0  0  0  0  0  0  0  0  0  0  0
    1.3998   44.2090   53.8802 C   0  0  0  0  0  0  0  0  0  0  0  0
    2.2678   44.1503   55.4690 S   0  0  0  0  0  0  0  0  0  0  0  0
    3.8004   44.8588   55.0225 C   0  0  0  0  0  0  0  0  0  0  0  0
    4.9389   44.2689   55.3028 N   0  0  0  0  0  0  0  0  0  0  0  0
    6.0192   45.0042   54.8587 N   0  0  0  0  0  0  0  0  0  0  0  0
    5.6692   46.1036   54.2211 C   0  0  0  0  0  0  0  0  0  0  0  0
    6.5744   46.9686   53.6998 N   0  0  0  0  0  0  0  0  0  0  0  0
    7.9772   46.7860   53.6029 C   0  0  0  0  0  0  0  0  0  0  0  0
    8.4774   46.2078   52.4231 C   0  0  0  0  0  0  0  0  0  0  0  0
    9.8492   45.9938   52.2465 C   0  0  0  0  0  0  0  0  0  0  0  0
   10.7450   46.3514   53.2505 C   0  0  0  0  0  0  0  0  0  0  0  0
   10.2679   46.9181   54.4312 C   0  0  0  0  0  0  0  0  0  0  0  0
    8.8937   47.1270   54.6066 C   0  0  0  0  0  0  0  0  0  0  0  0
    3.9574   46.3570   54.2100 S   0  0  0  0  0  0  0  0  0  0  0  0
    3.1985   43.5693   52.3664 N   0  0  0  0  0  0  0  0  0  0  0  0
    3.8995   42.7272   51.4029 C   0  0  0  0  0  0  0  0  0  0  0  0
    5.2004   42.1580   51.9921 C   0  0  0  0  0  0  0  0  0  0  0  0
    6.3025   43.2140   52.0140 C   0  0  0  0  0  0  0  0  0  0  0  0
    6.6329   43.6805   50.5974 C   0  0  0  0  0  0  0  0  0  0  0  0
    5.4064   44.0191   49.7846 C   0  0  0  0  0  0  0  0  0  0  0  0
    5.5573   44.7768   48.6091 C   0  0  0  0  0  0  0  0  0  0  0  0
    4.4564   45.0690   47.7995 C   0  0  0  0  0  0  0  0  0  0  0  0
    3.1943   44.6019   48.1499 C   0  0  0  0  0  0  0  0  0  0  0  0
    3.0311   43.8404   49.3096 C   0  0  0  0  0  0  0  0  0  0  0  0
    4.1308   43.5343   50.1352 C   0  0  0  0  0  0  0  0  0  0  0  0
    1.4943   45.2204   53.4582 H   0  0  0  0  0  0  0  0  0  0  0  0
    0.3437   43.9548   54.0537 H   0  0  0  0  0  0  0  0  0  0  0  0
    6.3799   47.9341   53.9572 H   0  0  0  0  0  0  0  0  0  0  0  0
    7.7783   45.9185   51.6247 H   0  0  0  0  0  0  0  0  0  0  0  0
   10.2198   45.5429   51.3140 H   0  0  0  0  0  0  0  0  0  0  0  0
   11.8240   46.1875   53.1126 H   0  0  0  0  0  0  0  0  0  0  0  0
   10.9720   47.2019   55.2272 H   0  0  0  0  0  0  0  0  0  0  0  0
    8.5285   47.5656   55.5469 H   0  0  0  0  0  0  0  0  0  0  0  0
    3.7146   44.3410   52.7606 H   0  0  0  0  0  0  0  0  0  0  0  0
    3.2841   41.8503   51.1534 H   0  0  0  0  0  0  0  0  0  0  0  0
    5.0097   41.8165   53.0202 H   0  0  0  0  0  0  0  0  0  0  0  0
    5.5321   41.3201   51.3613 H   0  0  0  0  0  0  0  0  0  0  0  0
    5.9648   44.0758   52.6082 H   0  0  0  0  0  0  0  0  0  0  0  0
    7.2058   42.7725   52.4601 H   0  0  0  0  0  0  0  0  0  0  0  0
    7.2678   44.5764   50.6629 H   0  0  0  0  0  0  0  0  0  0  0  0
    7.1443   42.8497   50.0892 H   0  0  0  0  0  0  0  0  0  0  0  0
    6.5542   45.1439   48.3236 H   0  0  0  0  0  0  0  0  0  0  0  0
    4.5879   45.6679   46.8862 H   0  0  0  0  0  0  0  0  0  0  0  0
    2.3260   44.8316   47.5149 H   0  0  0  0  0  0  0  0  0  0  0  0
    2.0300   43.4747   49.5819 H   0  0  0  0  0  0  0  0  0  0  0  0
  1  2  2  0
  2  3  1  0
  3  4  1  0
  4  5  1  0
  5  6  2  0
  6  7  1  0
  7  8  2  0
  8  9  1  0
  9 10  1  0
 10 11  2  0
 11 12  1  0
 12 13  2  0
 13 14  1  0
 14 15  2  0
  8 16  1  0
  2 17  1  0
 17 18  1  0
 18 19  1  0
 19 20  1  0
 20 21  1  0
 21 22  1  0
 22 23  2  0
 23 24  1  0
 24 25  2  0
 25 26  1  0
 26 27  2  0
 16  5  1  0
 27 18  1  0
 15 10  1  0
 27 22  1  0
  3 28  1  0
  3 29  1  0
  9 30  1  0
 11 31  1  0
 12 32  1  0
 13 33  1  0
 14 34  1  0
 15 35  1  0
 17 36  1  0
 18 37  1  0
 19 38  1  0
 19 39  1  0
 20 40  1  0
 20 41  1  0
 21 42  1  0
 21 43  1  0
 23 44  1  0
 24 45  1  0
 25 46  1  0
 26 47  1  0
M  END
>  <meeko>  (283) 
{"is_sidechain": false}

>  <CID>  (283) 
Z25402869

>  <pose_index>  (283) 
6

>  <docking_score>  (283) 
-8.209

>  <rmsd_to_best_selected>  (283) 
1.8822925871501244

>  <MWT>  (283) 
396.5409999999998

>  <TPSA>  (283) 
66.91

>  <logP>  (283) 
4.567600000000003

>  <HBD>  (283) 
2

>  <HBA>  (283) 
6

>  <SMILES>  (283) 
[H]c1c([H])c([H])c(N([H])c2nnc(SC([H])([H])C(=O)N([H])C3([H])c4c([H])c([H])c([H])c([H])c4C([H])([H])C([H])([H])C3([H])[H])s2)c([H])c1[H]

$$$$
Z25402869_pose7
     RDKit          3D

 47 50  0  0  0  0  0  0  0  0999 V2000
    3.6469   42.6506   53.7976 O   0  0  0  0  0  0  0  0  0  0  0  0
    2.9948   43.4550   53.1383 C   0  0  0  0  0  0  0  0  0  0  0  0
    1.9771   44.3918   53.7668 C   0  0  0  0  0  0  0  0  0  0  0  0
    2.3743   44.7352   55.5000 S   0  0  0  0  0  0  0  0  0  0  0  0
    3.8202   45.6958   55.3136 C   0  0  0  0  0  0  0  0  0  0  0  0
    3.8873   46.6771   54.4440 N   0  0  0  0  0  0  0  0  0  0  0  0
    5.1197   47.2969   54.4667 N   0  0  0  0  0  0  0  0  0  0  0  0
    5.9327   46.7979   55.3763 C   0  0  0  0  0  0  0  0  0  0  0  0
    7.1925   47.2644   55.5696 N   0  0  0  0  0  0  0  0  0  0  0  0
    8.3886   46.7658   54.9951 C   0  0  0  0  0  0  0  0  0  0  0  0
    9.4992   46.6060   55.8419 C   0  0  0  0  0  0  0  0  0  0  0  0
   10.7178   46.1174   55.3560 C   0  0  0  0  0  0  0  0  0  0  0  0
   10.8460   45.7856   54.0099 C   0  0  0  0  0  0  0  0  0  0  0  0
    9.7595   45.9461   53.1517 C   0  0  0  0  0  0  0  0  0  0  0  0
    8.5430   46.4385   53.6409 C   0  0  0  0  0  0  0  0  0  0  0  0
    5.2539   45.4449   56.2138 S   0  0  0  0  0  0  0  0  0  0  0  0
    3.0986   43.5685   51.7671 N   0  0  0  0  0  0  0  0  0  0  0  0
    4.0249   42.7452   50.9969 C   0  0  0  0  0  0  0  0  0  0  0  0
    5.4722   42.9116   51.4906 C   0  0  0  0  0  0  0  0  0  0  0  0
    6.0752   44.2222   50.9953 C   0  0  0  0  0  0  0  0  0  0  0  0
    6.1302   44.2499   49.4690 C   0  0  0  0  0  0  0  0  0  0  0  0
    4.8308   43.8323   48.8224 C   0  0  0  0  0  0  0  0  0  0  0  0
    4.6191   44.1345   47.4651 C   0  0  0  0  0  0  0  0  0  0  0  0
    3.4539   43.7208   46.8137 C   0  0  0  0  0  0  0  0  0  0  0  0
    2.4909   42.9949   47.5075 C   0  0  0  0  0  0  0  0  0  0  0  0
    2.6937   42.6799   48.8537 C   0  0  0  0  0  0  0  0  0  0  0  0
    3.8636   43.0862   49.5244 C   0  0  0  0  0  0  0  0  0  0  0  0
    1.9694   45.3388   53.2073 H   0  0  0  0  0  0  0  0  0  0  0  0
    0.9906   43.9066   53.7279 H   0  0  0  0  0  0  0  0  0  0  0  0
    7.3669   47.5174   56.5397 H   0  0  0  0  0  0  0  0  0  0  0  0
    9.4090   46.8697   56.9060 H   0  0  0  0  0  0  0  0  0  0  0  0
   11.5731   45.9959   56.0370 H   0  0  0  0  0  0  0  0  0  0  0  0
   11.8009   45.3982   53.6252 H   0  0  0  0  0  0  0  0  0  0  0  0
    9.8577   45.6854   52.0876 H   0  0  0  0  0  0  0  0  0  0  0  0
    7.6958   46.5703   52.9518 H   0  0  0  0  0  0  0  0  0  0  0  0
    2.6606   44.3374   51.2854 H   0  0  0  0  0  0  0  0  0  0  0  0
    3.7875   41.6805   51.1391 H   0  0  0  0  0  0  0  0  0  0  0  0
    5.4792   42.9062   52.5906 H   0  0  0  0  0  0  0  0  0  0  0  0
    6.0735   42.0796   51.0955 H   0  0  0  0  0  0  0  0  0  0  0  0
    5.4571   45.0604   51.3494 H   0  0  0  0  0  0  0  0  0  0  0  0
    7.0992   44.3102   51.3872 H   0  0  0  0  0  0  0  0  0  0  0  0
    6.3690   45.2738   49.1457 H   0  0  0  0  0  0  0  0  0  0  0  0
    6.8996   43.5292   49.1551 H   0  0  0  0  0  0  0  0  0  0  0  0
    5.3796   44.7032   46.9098 H   0  0  0  0  0  0  0  0  0  0  0  0
    3.2983   43.9690   45.7534 H   0  0  0  0  0  0  0  0  0  0  0  0
    1.5721   42.6697   46.9975 H   0  0  0  0  0  0  0  0  0  0  0  0
    1.9287   42.1063   49.3974 H   0  0  0  0  0  0  0  0  0  0  0  0
  1  2  2  0
  2  3  1  0
  3  4  1  0
  4  5  1  0
  5  6  2  0
  6  7  1  0
  7  8  2  0
  8  9  1  0
  9 10  1  0
 10 11  2  0
 11 12  1  0
 12 13  2  0
 13 14  1  0
 14 15  2  0
  8 16  1  0
  2 17  1  0
 17 18  1  0
 18 19  1  0
 19 20  1  0
 20 21  1  0
 21 22  1  0
 22 23  2  0
 23 24  1  0
 24 25  2  0
 25 26  1  0
 26 27  2  0
 16  5  1  0
 27 18  1  0
 15 10  1  0
 27 22  1  0
  3 28  1  0
  3 29  1  0
  9 30  1  0
 11 31  1  0
 12 32  1  0
 13 33  1  0
 14 34  1  0
 15 35  1  0
 17 36  1  0
 18 37  1  0
 19 38  1  0
 19 39  1  0
 20 40  1  0
 20 41  1  0
 21 42  1  0
 21 43  1  0
 23 44  1  0
 24 45  1  0
 25 46  1  0
 26 47  1  0
M  END
>  <meeko>  (284) 
{"is_sidechain": false}

>  <CID>  (284) 
Z25402869

>  <pose_index>  (284) 
7

>  <docking_score>  (284) 
-7.946

>  <rmsd_to_best_selected>  (284) 
1.5405230598721842

>  <MWT>  (284) 
396.5409999999998

>  <TPSA>  (284) 
66.91

>  <logP>  (284) 
4.567600000000003

>  <HBD>  (284) 
2

>  <HBA>  (284) 
6

>  <SMILES>  (284) 
[H]c1c([H])c([H])c(N([H])c2nnc(SC([H])([H])C(=O)N([H])C3([H])c4c([H])c([H])c([H])c([H])c4C([H])([H])C([H])([H])C3([H])[H])s2)c([H])c1[H]

$$$$
Z2610310359_pose6
     RDKit          3D

 44 47  0  0  0  0  0  0  0  0999 V2000
    2.7295   46.9004   54.1693 O   0  0  0  0  0  0  0  0  0  0  0  0
    1.8333   45.8080   54.3263 C   0  0  0  0  0  0  0  0  0  0  0  0
    2.1664   44.6719   53.3593 C   0  0  0  0  0  0  0  0  0  0  0  0
    1.4033   43.3898   53.7384 C   0  0  0  0  0  0  0  0  0  0  0  0
    1.6385   42.2661   52.7233 C   0  0  0  0  0  0  0  0  0  0  0  0
    1.3533   42.7354   51.2933 C   0  0  0  0  0  0  0  0  0  0  0  0
    2.1227   43.9460   51.0019 N   0  0  0  0  0  0  0  0  0  0  0  0
    3.4556   43.7424   50.6342 C   0  0  0  0  0  0  0  0  0  0  0  0
    4.4236   44.1639   51.4803 N   0  0  0  0  0  0  0  0  0  0  0  0
    5.7400   43.9984   51.2121 C   0  0  0  0  0  0  0  0  0  0  0  0
    6.7462   44.3662   52.1127 N   0  0  0  0  0  0  0  0  0  0  0  0
    7.0465   45.6040   52.7094 C   0  0  0  0  0  0  0  0  0  0  0  0
    8.1163   46.4116   52.3154 C   0  0  0  0  0  0  0  0  0  0  0  0
    8.3446   47.6570   52.9088 C   0  0  0  0  0  0  0  0  0  0  0  0
    7.4988   48.1178   53.9126 C   0  0  0  0  0  0  0  0  0  0  0  0
    6.4267   47.3319   54.3226 C   0  0  0  0  0  0  0  0  0  0  0  0
    6.2037   46.0876   53.7246 C   0  0  0  0  0  0  0  0  0  0  0  0
    6.0228   43.3919   50.0036 C   0  0  0  0  0  0  0  0  0  0  0  0
    7.1631   43.0496   49.3302 N   0  0  0  0  0  0  0  0  0  0  0  0
    6.7904   42.4561   48.1550 C   0  0  0  0  0  0  0  0  0  0  0  0
    5.4838   42.3967   48.0365 N   0  0  0  0  0  0  0  0  0  0  0  0
    4.9974   42.9856   49.1762 C   0  0  0  0  0  0  0  0  0  0  0  0
    3.7015   43.1402   49.4685 N   0  0  0  0  0  0  0  0  0  0  0  0
    1.8488   45.0668   51.9050 C   0  0  0  0  0  0  0  0  0  0  0  0
    2.5013   47.5742   54.8370 H   0  0  0  0  0  0  0  0  0  0  0  0
    1.9035   45.4325   55.3578 H   0  0  0  0  0  0  0  0  0  0  0  0
    0.8145   46.1612   54.1088 H   0  0  0  0  0  0  0  0  0  0  0  0
    3.2461   44.4762   53.4361 H   0  0  0  0  0  0  0  0  0  0  0  0
    1.7438   43.0524   54.7284 H   0  0  0  0  0  0  0  0  0  0  0  0
    0.3281   43.6222   53.7481 H   0  0  0  0  0  0  0  0  0  0  0  0
    2.6862   41.9374   52.7897 H   0  0  0  0  0  0  0  0  0  0  0  0
    0.9538   41.4380   52.9588 H   0  0  0  0  0  0  0  0  0  0  0  0
    1.6388   41.9429   50.5858 H   0  0  0  0  0  0  0  0  0  0  0  0
    0.2803   42.9559   51.1925 H   0  0  0  0  0  0  0  0  0  0  0  0
    7.3186   43.6061   52.4433 H   0  0  0  0  0  0  0  0  0  0  0  0
    8.7929   46.0606   51.5222 H   0  0  0  0  0  0  0  0  0  0  0  0
    9.1946   48.2736   52.5813 H   0  0  0  0  0  0  0  0  0  0  0  0
    7.6766   49.0979   54.3792 H   0  0  0  0  0  0  0  0  0  0  0  0
    5.7548   47.6889   55.1169 H   0  0  0  0  0  0  0  0  0  0  0  0
    5.3518   45.4754   54.0553 H   0  0  0  0  0  0  0  0  0  0  0  0
    8.1126   43.2162   49.6286 H   0  0  0  0  0  0  0  0  0  0  0  0
    7.4974   42.0760   47.4029 H   0  0  0  0  0  0  0  0  0  0  0  0
    2.4735   45.9253   51.6176 H   0  0  0  0  0  0  0  0  0  0  0  0
    0.7842   45.3335   51.8312 H   0  0  0  0  0  0  0  0  0  0  0  0
  1  2  1  0
  2  3  1  0
  3  4  1  0
  4  5  1  0
  5  6  1  0
  6  7  1  0
  7  8  1  0
  8  9  2  0
  9 10  1  0
 10 11  1  0
 11 12  1  0
 12 13  2  0
 13 14  1  0
 14 15  2  0
 15 16  1  0
 16 17  2  0
 10 18  2  0
 18 19  1  0
 19 20  1  0
 20 21  2  0
 21 22  1  0
 22 23  2  0
  7 24  1  0
 24  3  1  0
 23  8  1  0
 17 12  1  0
 22 18  1  0
  1 25  1  0
  2 26  1  0
  2 27  1  0
  3 28  1  0
  4 29  1  0
  4 30  1  0
  5 31  1  0
  5 32  1  0
  6 33  1  0
  6 34  1  0
 11 35  1  0
 13 36  1  0
 14 37  1  0
 15 38  1  0
 16 39  1  0
 17 40  1  0
 19 41  1  0
 20 42  1  0
 24 43  1  0
 24 44  1  0
M  END
>  <meeko>  (285) 
{"is_sidechain": false}

>  <CID>  (285) 
Z2610310359

>  <pose_index>  (285) 
6

>  <docking_score>  (285) 
-8.236

>  <rmsd_to_best_selected>  (285) 
1.6122443840159582

>  <MWT>  (285) 
324.38799999999964

>  <TPSA>  (285) 
89.96000000000001

>  <logP>  (285) 
2.3052

>  <HBD>  (285) 
3

>  <HBA>  (285) 
6

>  <SMILES>  (285) 
[H]OC([H])([H])C1([H])C([H])([H])N(c2nc(N([H])c3c([H])c([H])c([H])c([H])c3[H])c3c(n2)nc([H])n3[H])C([H])([H])C([H])([H])C1([H])[H]

$$$$
Z2610310359_pose2
     RDKit          3D

 44 47  0  0  0  0  0  0  0  0999 V2000
    2.7234   43.8342   55.6362 O   0  0  0  0  0  0  0  0  0  0  0  0
    1.4846   43.7061   54.9539 C   0  0  0  0  0  0  0  0  0  0  0  0
    1.6550   43.9092   53.4475 C   0  0  0  0  0  0  0  0  0  0  0  0
    0.3783   43.4942   52.6928 C   0  0  0  0  0  0  0  0  0  0  0  0
    0.4850   43.7859   51.1920 C   0  0  0  0  0  0  0  0  0  0  0  0
    0.8931   45.2391   50.9318 C   0  0  0  0  0  0  0  0  0  0  0  0
    2.1186   45.5545   51.6690 N   0  0  0  0  0  0  0  0  0  0  0  0
    3.3114   45.1456   51.0648 C   0  0  0  0  0  0  0  0  0  0  0  0
    4.4422   45.8280   51.3579 N   0  0  0  0  0  0  0  0  0  0  0  0
    5.6428   45.4961   50.8298 C   0  0  0  0  0  0  0  0  0  0  0  0
    6.8303   46.1492   51.1814 N   0  0  0  0  0  0  0  0  0  0  0  0
    7.6623   46.0108   52.3068 C   0  0  0  0  0  0  0  0  0  0  0  0
    7.2395   46.2549   53.6153 C   0  0  0  0  0  0  0  0  0  0  0  0
    8.0931   46.0564   54.7048 C   0  0  0  0  0  0  0  0  0  0  0  0
    9.3928   45.6054   54.5006 C   0  0  0  0  0  0  0  0  0  0  0  0
    9.8382   45.3565   53.2065 C   0  0  0  0  0  0  0  0  0  0  0  0
    8.9792   45.5562   52.1215 C   0  0  0  0  0  0  0  0  0  0  0  0
    5.6257   44.4295   49.9517 C   0  0  0  0  0  0  0  0  0  0  0  0
    6.5592   43.7791   49.1913 N   0  0  0  0  0  0  0  0  0  0  0  0
    5.9203   42.7730   48.5195 C   0  0  0  0  0  0  0  0  0  0  0  0
    4.6389   42.7405   48.8023 N   0  0  0  0  0  0  0  0  0  0  0  0
    4.4428   43.7723   49.6831 C   0  0  0  0  0  0  0  0  0  0  0  0
    3.2695   44.1032   50.2329 N   0  0  0  0  0  0  0  0  0  0  0  0
    2.0141   45.3691   53.1194 C   0  0  0  0  0  0  0  0  0  0  0  0
    3.0935   42.9394   55.7581 H   0  0  0  0  0  0  0  0  0  0  0  0
    1.0778   42.7004   55.1359 H   0  0  0  0  0  0  0  0  0  0  0  0
    0.7987   44.4783   55.3325 H   0  0  0  0  0  0  0  0  0  0  0  0
    2.4852   43.2677   53.1169 H   0  0  0  0  0  0  0  0  0  0  0  0
    0.2148   42.4158   52.8354 H   0  0  0  0  0  0  0  0  0  0  0  0
   -0.4625   44.0778   53.0959 H   0  0  0  0  0  0  0  0  0  0  0  0
    1.2394   43.1180   50.7505 H   0  0  0  0  0  0  0  0  0  0  0  0
   -0.5016   43.6167   50.7358 H   0  0  0  0  0  0  0  0  0  0  0  0
    1.0687   45.3811   49.8553 H   0  0  0  0  0  0  0  0  0  0  0  0
    0.0866   45.9068   51.2693 H   0  0  0  0  0  0  0  0  0  0  0  0
    7.1884   46.7817   50.4856 H   0  0  0  0  0  0  0  0  0  0  0  0
    6.2138   46.6107   53.7924 H   0  0  0  0  0  0  0  0  0  0  0  0
    7.7359   46.2573   55.7256 H   0  0  0  0  0  0  0  0  0  0  0  0
   10.0644   45.4464   55.3571 H   0  0  0  0  0  0  0  0  0  0  0  0
   10.8658   45.0028   53.0368 H   0  0  0  0  0  0  0  0  0  0  0  0
    9.3413   45.3534   51.1027 H   0  0  0  0  0  0  0  0  0  0  0  0
    7.5401   44.0030   49.1192 H   0  0  0  0  0  0  0  0  0  0  0  0
    6.4186   42.0776   47.8280 H   0  0  0  0  0  0  0  0  0  0  0  0
    2.9775   45.6197   53.5874 H   0  0  0  0  0  0  0  0  0  0  0  0
    1.2234   46.0277   53.5079 H   0  0  0  0  0  0  0  0  0  0  0  0
  1  2  1  0
  2  3  1  0
  3  4  1  0
  4  5  1  0
  5  6  1  0
  6  7  1  0
  7  8  1  0
  8  9  2  0
  9 10  1  0
 10 11  1  0
 11 12  1  0
 12 13  2  0
 13 14  1  0
 14 15  2  0
 15 16  1  0
 16 17  2  0
 10 18  2  0
 18 19  1  0
 19 20  1  0
 20 21  2  0
 21 22  1  0
 22 23  2  0
  7 24  1  0
 24  3  1  0
 23  8  1  0
 17 12  1  0
 22 18  1  0
  1 25  1  0
  2 26  1  0
  2 27  1  0
  3 28  1  0
  4 29  1  0
  4 30  1  0
  5 31  1  0
  5 32  1  0
  6 33  1  0
  6 34  1  0
 11 35  1  0
 13 36  1  0
 14 37  1  0
 15 38  1  0
 16 39  1  0
 17 40  1  0
 19 41  1  0
 20 42  1  0
 24 43  1  0
 24 44  1  0
M  END
>  <meeko>  (286) 
{"is_sidechain": false}

>  <CID>  (286) 
Z2610310359

>  <pose_index>  (286) 
2

>  <docking_score>  (286) 
-8.896

>  <rmsd_to_best_selected>  (286) 
0.0

>  <MWT>  (286) 
324.38799999999964

>  <TPSA>  (286) 
89.96000000000001

>  <logP>  (286) 
2.3052

>  <HBD>  (286) 
3

>  <HBA>  (286) 
6

>  <SMILES>  (286) 
[H]OC([H])([H])C1([H])C([H])([H])N(c2nc(N([H])c3c([H])c([H])c([H])c([H])c3[H])c3c(n2)nc([H])n3[H])C([H])([H])C([H])([H])C1([H])[H]

$$$$
Z2610310359_pose3
     RDKit          3D

 44 47  0  0  0  0  0  0  0  0999 V2000
    3.3499   44.6517   55.6630 O   0  0  0  0  0  0  0  0  0  0  0  0
    2.0620   44.7465   55.0698 C   0  0  0  0  0  0  0  0  0  0  0  0
    2.1090   44.4025   53.5805 C   0  0  0  0  0  0  0  0  0  0  0  0
    1.0492   43.3418   53.2313 C   0  0  0  0  0  0  0  0  0  0  0  0
    1.0048   43.0558   51.7261 C   0  0  0  0  0  0  0  0  0  0  0  0
    0.8534   44.3469   50.9164 C   0  0  0  0  0  0  0  0  0  0  0  0
    1.9011   45.2982   51.2919 N   0  0  0  0  0  0  0  0  0  0  0  0
    3.1445   45.1011   50.6830 C   0  0  0  0  0  0  0  0  0  0  0  0
    4.2315   45.6696   51.2541 N   0  0  0  0  0  0  0  0  0  0  0  0
    5.4749   45.5230   50.7419 C   0  0  0  0  0  0  0  0  0  0  0  0
    6.6149   46.0467   51.3627 N   0  0  0  0  0  0  0  0  0  0  0  0
    7.2781   45.6721   52.5457 C   0  0  0  0  0  0  0  0  0  0  0  0
    6.7500   45.8708   53.8229 C   0  0  0  0  0  0  0  0  0  0  0  0
    7.4290   45.4359   54.9662 C   0  0  0  0  0  0  0  0  0  0  0  0
    8.6539   44.7899   54.8472 C   0  0  0  0  0  0  0  0  0  0  0  0
    9.2017   44.5801   53.5855 C   0  0  0  0  0  0  0  0  0  0  0  0
    8.5179   45.0159   52.4467 C   0  0  0  0  0  0  0  0  0  0  0  0
    5.5506   44.7732   49.5833 C   0  0  0  0  0  0  0  0  0  0  0  0
    6.5536   44.3901   48.7357 N   0  0  0  0  0  0  0  0  0  0  0  0
    5.9936   43.6308   47.7446 C   0  0  0  0  0  0  0  0  0  0  0  0
    4.6974   43.5049   47.9068 N   0  0  0  0  0  0  0  0  0  0  0  0
    4.4100   44.2194   49.0416 C   0  0  0  0  0  0  0  0  0  0  0  0
    3.1917   44.3596   49.5745 N   0  0  0  0  0  0  0  0  0  0  0  0
    1.9085   45.6582   52.7118 C   0  0  0  0  0  0  0  0  0  0  0  0
    4.0140   44.6897   54.9490 H   0  0  0  0  0  0  0  0  0  0  0  0
    1.3814   44.0473   55.5776 H   0  0  0  0  0  0  0  0  0  0  0  0
    1.7067   45.7821   55.1756 H   0  0  0  0  0  0  0  0  0  0  0  0
    3.1059   43.9900   53.3656 H   0  0  0  0  0  0  0  0  0  0  0  0
    1.2893   42.4097   53.7639 H   0  0  0  0  0  0  0  0  0  0  0  0
    0.0653   43.7284   53.5352 H   0  0  0  0  0  0  0  0  0  0  0  0
    1.9379   42.5546   51.4293 H   0  0  0  0  0  0  0  0  0  0  0  0
    0.1350   42.4145   51.5210 H   0  0  0  0  0  0  0  0  0  0  0  0
    0.9376   44.1166   49.8440 H   0  0  0  0  0  0  0  0  0  0  0  0
   -0.1306   44.7917   51.1258 H   0  0  0  0  0  0  0  0  0  0  0  0
    7.0819   46.7760   50.8489 H   0  0  0  0  0  0  0  0  0  0  0  0
    5.7807   46.3792   53.9323 H   0  0  0  0  0  0  0  0  0  0  0  0
    6.9925   45.6056   55.9615 H   0  0  0  0  0  0  0  0  0  0  0  0
    9.1874   44.4463   55.7457 H   0  0  0  0  0  0  0  0  0  0  0  0
   10.1719   44.0718   53.4842 H   0  0  0  0  0  0  0  0  0  0  0  0
    8.9583   44.8422   51.4538 H   0  0  0  0  0  0  0  0  0  0  0  0
    7.5311   44.6325   48.8083 H   0  0  0  0  0  0  0  0  0  0  0  0
    6.5595   43.1818   46.9151 H   0  0  0  0  0  0  0  0  0  0  0  0
    2.7287   46.3660   52.9025 H   0  0  0  0  0  0  0  0  0  0  0  0
    0.9442   46.1209   52.9688 H   0  0  0  0  0  0  0  0  0  0  0  0
  1  2  1  0
  2  3  1  0
  3  4  1  0
  4  5  1  0
  5  6  1  0
  6  7  1  0
  7  8  1  0
  8  9  2  0
  9 10  1  0
 10 11  1  0
 11 12  1  0
 12 13  2  0
 13 14  1  0
 14 15  2  0
 15 16  1  0
 16 17  2  0
 10 18  2  0
 18 19  1  0
 19 20  1  0
 20 21  2  0
 21 22  1  0
 22 23  2  0
  7 24  1  0
 24  3  1  0
 23  8  1  0
 17 12  1  0
 22 18  1  0
  1 25  1  0
  2 26  1  0
  2 27  1  0
  3 28  1  0
  4 29  1  0
  4 30  1  0
  5 31  1  0
  5 32  1  0
  6 33  1  0
  6 34  1  0
 11 35  1  0
 13 36  1  0
 14 37  1  0
 15 38  1  0
 16 39  1  0
 17 40  1  0
 19 41  1  0
 20 42  1  0
 24 43  1  0
 24 44  1  0
M  END
>  <meeko>  (287) 
{"is_sidechain": false}

>  <CID>  (287) 
Z2610310359

>  <pose_index>  (287) 
3

>  <docking_score>  (287) 
-8.717

>  <rmsd_to_best_selected>  (287) 
1.0096843708809495

>  <MWT>  (287) 
324.38799999999964

>  <TPSA>  (287) 
89.96000000000001

>  <logP>  (287) 
2.3052

>  <HBD>  (287) 
3

>  <HBA>  (287) 
6

>  <SMILES>  (287) 
[H]OC([H])([H])C1([H])C([H])([H])N(c2nc(N([H])c3c([H])c([H])c([H])c([H])c3[H])c3c(n2)nc([H])n3[H])C([H])([H])C([H])([H])C1([H])[H]

$$$$
Z2610310359_pose7
     RDKit          3D

 44 47  0  0  0  0  0  0  0  0999 V2000
    2.0080   45.0211   55.6533 O   0  0  0  0  0  0  0  0  0  0  0  0
    0.9859   44.3308   54.9479 C   0  0  0  0  0  0  0  0  0  0  0  0
    1.4947   43.8021   53.6061 C   0  0  0  0  0  0  0  0  0  0  0  0
    0.6078   42.6504   53.1013 C   0  0  0  0  0  0  0  0  0  0  0  0
    1.0341   42.1717   51.7093 C   0  0  0  0  0  0  0  0  0  0  0  0
    1.1271   43.3377   50.7208 C   0  0  0  0  0  0  0  0  0  0  0  0
    1.9956   44.3837   51.2623 N   0  0  0  0  0  0  0  0  0  0  0  0
    3.3685   44.1775   51.0964 C   0  0  0  0  0  0  0  0  0  0  0  0
    4.2168   44.8124   51.9374 N   0  0  0  0  0  0  0  0  0  0  0  0
    5.5586   44.6625   51.8587 C   0  0  0  0  0  0  0  0  0  0  0  0
    6.4413   45.2582   52.7684 N   0  0  0  0  0  0  0  0  0  0  0  0
    7.3464   46.3235   52.6161 C   0  0  0  0  0  0  0  0  0  0  0  0
    8.6172   46.1818   52.0548 C   0  0  0  0  0  0  0  0  0  0  0  0
    9.4626   47.2825   51.8816 C   0  0  0  0  0  0  0  0  0  0  0  0
    9.0455   48.5510   52.2693 C   0  0  0  0  0  0  0  0  0  0  0  0
    7.7846   48.7184   52.8310 C   0  0  0  0  0  0  0  0  0  0  0  0
    6.9436   47.6141   53.0010 C   0  0  0  0  0  0  0  0  0  0  0  0
    6.0004   43.8354   50.8436 C   0  0  0  0  0  0  0  0  0  0  0  0
    7.2219   43.4197   50.3881 N   0  0  0  0  0  0  0  0  0  0  0  0
    7.0082   42.5784   49.3315 C   0  0  0  0  0  0  0  0  0  0  0  0
    5.7274   42.4310   49.0831 N   0  0  0  0  0  0  0  0  0  0  0  0
    5.0929   43.2162   50.0116 C   0  0  0  0  0  0  0  0  0  0  0  0
    3.7673   43.3610   50.1184 N   0  0  0  0  0  0  0  0  0  0  0  0
    1.5587   44.9224   52.5540 C   0  0  0  0  0  0  0  0  0  0  0  0
    2.7010   44.3755   55.8873 H   0  0  0  0  0  0  0  0  0  0  0  0
    0.6390   43.4839   55.5582 H   0  0  0  0  0  0  0  0  0  0  0  0
    0.1630   45.0345   54.7537 H   0  0  0  0  0  0  0  0  0  0  0  0
    2.5138   43.4197   53.7644 H   0  0  0  0  0  0  0  0  0  0  0  0
    0.6822   41.8087   53.8055 H   0  0  0  0  0  0  0  0  0  0  0  0
   -0.4263   43.0194   53.0340 H   0  0  0  0  0  0  0  0  0  0  0  0
    2.0185   41.6865   51.7838 H   0  0  0  0  0  0  0  0  0  0  0  0
    0.2769   41.4645   51.3398 H   0  0  0  0  0  0  0  0  0  0  0  0
    1.5423   42.9760   49.7686 H   0  0  0  0  0  0  0  0  0  0  0  0
    0.1217   43.7523   50.5554 H   0  0  0  0  0  0  0  0  0  0  0  0
    6.3753   44.9120   53.7117 H   0  0  0  0  0  0  0  0  0  0  0  0
    8.9602   45.1844   51.7426 H   0  0  0  0  0  0  0  0  0  0  0  0
   10.4596   47.1443   51.4379 H   0  0  0  0  0  0  0  0  0  0  0  0
    9.7093   49.4173   52.1323 H   0  0  0  0  0  0  0  0  0  0  0  0
    7.4489   49.7188   53.1416 H   0  0  0  0  0  0  0  0  0  0  0  0
    5.9474   47.7583   53.4445 H   0  0  0  0  0  0  0  0  0  0  0  0
    8.1241   43.6927   50.7492 H   0  0  0  0  0  0  0  0  0  0  0  0
    7.8095   42.0864   48.7606 H   0  0  0  0  0  0  0  0  0  0  0  0
    2.2715   45.6916   52.8860 H   0  0  0  0  0  0  0  0  0  0  0  0
    0.5569   45.3615   52.4378 H   0  0  0  0  0  0  0  0  0  0  0  0
  1  2  1  0
  2  3  1  0
  3  4  1  0
  4  5  1  0
  5  6  1  0
  6  7  1  0
  7  8  1  0
  8  9  2  0
  9 10  1  0
 10 11  1  0
 11 12  1  0
 12 13  2  0
 13 14  1  0
 14 15  2  0
 15 16  1  0
 16 17  2  0
 10 18  2  0
 18 19  1  0
 19 20  1  0
 20 21  2  0
 21 22  1  0
 22 23  2  0
  7 24  1  0
 24  3  1  0
 23  8  1  0
 17 12  1  0
 22 18  1  0
  1 25  1  0
  2 26  1  0
  2 27  1  0
  3 28  1  0
  4 29  1  0
  4 30  1  0
  5 31  1  0
  5 32  1  0
  6 33  1  0
  6 34  1  0
 11 35  1  0
 13 36  1  0
 14 37  1  0
 15 38  1  0
 16 39  1  0
 17 40  1  0
 19 41  1  0
 20 42  1  0
 24 43  1  0
 24 44  1  0
M  END
>  <meeko>  (288) 
{"is_sidechain": false}

>  <CID>  (288) 
Z2610310359

>  <pose_index>  (288) 
7

>  <docking_score>  (288) 
-8.064

>  <rmsd_to_best_selected>  (288) 
1.158434220291939

>  <MWT>  (288) 
324.38799999999964

>  <TPSA>  (288) 
89.96000000000001

>  <logP>  (288) 
2.3052

>  <HBD>  (288) 
3

>  <HBA>  (288) 
6

>  <SMILES>  (288) 
[H]OC([H])([H])C1([H])C([H])([H])N(c2nc(N([H])c3c([H])c([H])c([H])c([H])c3[H])c3c(n2)nc([H])n3[H])C([H])([H])C([H])([H])C1([H])[H]

$$$$
Z2610310359_pose10
     RDKit          3D

 44 47  0  0  0  0  0  0  0  0999 V2000
   -0.4126   45.4998   54.0769 O   0  0  0  0  0  0  0  0  0  0  0  0
    0.9568   45.6029   54.4380 C   0  0  0  0  0  0  0  0  0  0  0  0
    1.7631   44.4132   53.9141 C   0  0  0  0  0  0  0  0  0  0  0  0
    1.3417   43.1134   54.6233 C   0  0  0  0  0  0  0  0  0  0  0  0
    2.0598   41.8900   54.0427 C   0  0  0  0  0  0  0  0  0  0  0  0
    1.9067   41.8224   52.5203 C   0  0  0  0  0  0  0  0  0  0  0  0
    2.3388   43.0847   51.9181 N   0  0  0  0  0  0  0  0  0  0  0  0
    3.7178   43.2308   51.7400 C   0  0  0  0  0  0  0  0  0  0  0  0
    4.1551   44.1892   50.8915 N   0  0  0  0  0  0  0  0  0  0  0  0
    5.4709   44.4095   50.6671 C   0  0  0  0  0  0  0  0  0  0  0  0
    5.9347   45.4447   49.8469 N   0  0  0  0  0  0  0  0  0  0  0  0
    6.5964   46.6465   50.1602 C   0  0  0  0  0  0  0  0  0  0  0  0
    6.1152   47.5722   51.0891 C   0  0  0  0  0  0  0  0  0  0  0  0
    6.8354   48.7308   51.3998 C   0  0  0  0  0  0  0  0  0  0  0  0
    8.0558   48.9801   50.7827 C   0  0  0  0  0  0  0  0  0  0  0  0
    8.5552   48.0740   49.8536 C   0  0  0  0  0  0  0  0  0  0  0  0
    7.8310   46.9178   49.5478 C   0  0  0  0  0  0  0  0  0  0  0  0
    6.3327   43.5695   51.3454 C   0  0  0  0  0  0  0  0  0  0  0  0
    7.6902   43.4147   51.4114 N   0  0  0  0  0  0  0  0  0  0  0  0
    7.9514   42.3933   52.2841 C   0  0  0  0  0  0  0  0  0  0  0  0
    6.8461   41.8876   52.7802 N   0  0  0  0  0  0  0  0  0  0  0  0
    5.8342   42.6046   52.1951 C   0  0  0  0  0  0  0  0  0  0  0  0
    4.5286   42.4172   52.4193 N   0  0  0  0  0  0  0  0  0  0  0  0
    1.6046   44.2617   52.3908 C   0  0  0  0  0  0  0  0  0  0  0  0
   -0.5643   44.6033   53.7226 H   0  0  0  0  0  0  0  0  0  0  0  0
    1.3700   46.5299   54.0138 H   0  0  0  0  0  0  0  0  0  0  0  0
    1.0258   45.6114   55.5358 H   0  0  0  0  0  0  0  0  0  0  0  0
    2.8235   44.6067   54.1330 H   0  0  0  0  0  0  0  0  0  0  0  0
    1.5865   43.1957   55.6926 H   0  0  0  0  0  0  0  0  0  0  0  0
    0.2603   42.9777   54.4747 H   0  0  0  0  0  0  0  0  0  0  0  0
    3.1294   41.9509   54.2925 H   0  0  0  0  0  0  0  0  0  0  0  0
    1.6085   40.9855   54.4765 H   0  0  0  0  0  0  0  0  0  0  0  0
    2.5245   41.0011   52.1280 H   0  0  0  0  0  0  0  0  0  0  0  0
    0.8501   41.6457   52.2707 H   0  0  0  0  0  0  0  0  0  0  0  0
    5.8384   45.2791   48.8583 H   0  0  0  0  0  0  0  0  0  0  0  0
    5.1514   47.3868   51.5858 H   0  0  0  0  0  0  0  0  0  0  0  0
    6.4353   49.4456   52.1338 H   0  0  0  0  0  0  0  0  0  0  0  0
    8.6236   49.8897   51.0281 H   0  0  0  0  0  0  0  0  0  0  0  0
    9.5191   48.2667   49.3597 H   0  0  0  0  0  0  0  0  0  0  0  0
    8.2362   46.2065   48.8130 H   0  0  0  0  0  0  0  0  0  0  0  0
    8.3829   43.9404   50.8994 H   0  0  0  0  0  0  0  0  0  0  0  0
    8.9616   42.0400   52.5383 H   0  0  0  0  0  0  0  0  0  0  0  0
    1.9998   45.1599   51.8937 H   0  0  0  0  0  0  0  0  0  0  0  0
    0.5379   44.1380   52.1524 H   0  0  0  0  0  0  0  0  0  0  0  0
  1  2  1  0
  2  3  1  0
  3  4  1  0
  4  5  1  0
  5  6  1  0
  6  7  1  0
  7  8  1  0
  8  9  2  0
  9 10  1  0
 10 11  1  0
 11 12  1  0
 12 13  2  0
 13 14  1  0
 14 15  2  0
 15 16  1  0
 16 17  2  0
 10 18  2  0
 18 19  1  0
 19 20  1  0
 20 21  2  0
 21 22  1  0
 22 23  2  0
  7 24  1  0
 24  3  1  0
 23  8  1  0
 17 12  1  0
 22 18  1  0
  1 25  1  0
  2 26  1  0
  2 27  1  0
  3 28  1  0
  4 29  1  0
  4 30  1  0
  5 31  1  0
  5 32  1  0
  6 33  1  0
  6 34  1  0
 11 35  1  0
 13 36  1  0
 14 37  1  0
 15 38  1  0
 16 39  1  0
 17 40  1  0
 19 41  1  0
 20 42  1  0
 24 43  1  0
 24 44  1  0
M  END
>  <meeko>  (289) 
{"is_sidechain": false}

>  <CID>  (289) 
Z2610310359

>  <pose_index>  (289) 
10

>  <docking_score>  (289) 
-7.884

>  <rmsd_to_best_selected>  (289) 
0.9911531359784619

>  <MWT>  (289) 
324.38799999999964

>  <TPSA>  (289) 
89.96000000000001

>  <logP>  (289) 
2.3052

>  <HBD>  (289) 
3

>  <HBA>  (289) 
6

>  <SMILES>  (289) 
[H]OC([H])([H])C1([H])C([H])([H])N(c2nc(N([H])c3c([H])c([H])c([H])c([H])c3[H])c3c(n2)nc([H])n3[H])C([H])([H])C([H])([H])C1([H])[H]

$$$$
Z2611810317_pose2
     RDKit          3D

 44 47  0  0  0  0  0  0  0  0999 V2000
   -1.4829   44.2678   57.0993 C   0  0  0  0  0  0  0  0  0  0  0  0
   -1.0147   43.5970   55.9377 O   0  0  0  0  0  0  0  0  0  0  0  0
   -0.4616   44.4757   54.9579 C   0  0  0  0  0  0  0  0  0  0  0  0
    1.0326   44.2490   54.7651 C   0  0  0  0  0  0  0  0  0  0  0  0
    1.8946   45.3288   55.4181 C   0  0  0  0  0  0  0  0  0  0  0  0
    3.2254   45.1777   54.6853 C   0  0  0  0  0  0  0  0  0  0  0  0
    2.8079   44.8446   53.3375 N   0  0  0  0  0  0  0  0  0  0  0  0
    3.7423   44.4945   52.3922 C   0  0  0  0  0  0  0  0  0  0  0  0
    4.7535   45.3610   52.1648 N   0  0  0  0  0  0  0  0  0  0  0  0
    5.7332   45.1003   51.2704 C   0  0  0  0  0  0  0  0  0  0  0  0
    6.7770   45.9948   51.0059 N   0  0  0  0  0  0  0  0  0  0  0  0
    7.9378   46.3276   51.7315 C   0  0  0  0  0  0  0  0  0  0  0  0
    7.9256   46.9910   52.9622 C   0  0  0  0  0  0  0  0  0  0  0  0
    9.1150   47.3137   53.6249 C   0  0  0  0  0  0  0  0  0  0  0  0
   10.3432   46.9815   53.0625 C   0  0  0  0  0  0  0  0  0  0  0  0
   10.3819   46.3277   51.8364 C   0  0  0  0  0  0  0  0  0  0  0  0
    9.1892   46.0070   51.1782 C   0  0  0  0  0  0  0  0  0  0  0  0
    5.6210   43.8887   50.6118 C   0  0  0  0  0  0  0  0  0  0  0  0
    6.3526   43.2254   49.6642 N   0  0  0  0  0  0  0  0  0  0  0  0
    5.7223   42.0399   49.4062 C   0  0  0  0  0  0  0  0  0  0  0  0
    4.6353   41.9014   50.1304 N   0  0  0  0  0  0  0  0  0  0  0  0
    4.5661   43.0436   50.8876 C   0  0  0  0  0  0  0  0  0  0  0  0
    3.6050   43.3181   51.7778 N   0  0  0  0  0  0  0  0  0  0  0  0
    1.4626   44.2850   53.2908 C   0  0  0  0  0  0  0  0  0  0  0  0
   -1.0508   43.7963   57.9943 H   0  0  0  0  0  0  0  0  0  0  0  0
   -1.1805   45.3247   57.0594 H   0  0  0  0  0  0  0  0  0  0  0  0
   -2.5801   44.2019   57.1437 H   0  0  0  0  0  0  0  0  0  0  0  0
   -0.9731   44.3053   53.9991 H   0  0  0  0  0  0  0  0  0  0  0  0
   -0.6057   45.5085   55.3082 H   0  0  0  0  0  0  0  0  0  0  0  0
    1.1865   43.2602   55.2219 H   0  0  0  0  0  0  0  0  0  0  0  0
    1.4654   46.3293   55.2604 H   0  0  0  0  0  0  0  0  0  0  0  0
    1.9804   45.2209   56.5094 H   0  0  0  0  0  0  0  0  0  0  0  0
    3.7974   46.1171   54.7031 H   0  0  0  0  0  0  0  0  0  0  0  0
    3.8902   44.4260   55.1359 H   0  0  0  0  0  0  0  0  0  0  0  0
    6.6938   46.4924   50.1349 H   0  0  0  0  0  0  0  0  0  0  0  0
    6.9626   47.2646   53.4181 H   0  0  0  0  0  0  0  0  0  0  0  0
    9.0787   47.8321   54.5944 H   0  0  0  0  0  0  0  0  0  0  0  0
   11.2777   47.2345   53.5846 H   0  0  0  0  0  0  0  0  0  0  0  0
   11.3489   46.0627   51.3839 H   0  0  0  0  0  0  0  0  0  0  0  0
    9.2322   45.4928   50.2068 H   0  0  0  0  0  0  0  0  0  0  0  0
    7.2076   43.5411   49.2315 H   0  0  0  0  0  0  0  0  0  0  0  0
    6.0813   41.2941   48.6817 H   0  0  0  0  0  0  0  0  0  0  0  0
    0.7909   44.9268   52.7018 H   0  0  0  0  0  0  0  0  0  0  0  0
    1.4287   43.2951   52.8123 H   0  0  0  0  0  0  0  0  0  0  0  0
  1  2  1  0
  2  3  1  0
  3  4  1  0
  4  5  1  0
  5  6  1  0
  6  7  1  0
  7  8  1  0
  8  9  2  0
  9 10  1  0
 10 11  1  0
 11 12  1  0
 12 13  2  0
 13 14  1  0
 14 15  2  0
 15 16  1  0
 16 17  2  0
 10 18  2  0
 18 19  1  0
 19 20  1  0
 20 21  2  0
 21 22  1  0
 22 23  2  0
  7 24  1  0
 24  4  1  0
 23  8  1  0
 17 12  1  0
 22 18  1  0
  1 25  1  0
  1 26  1  0
  1 27  1  0
  3 28  1  0
  3 29  1  0
  4 30  1  0
  5 31  1  0
  5 32  1  0
  6 33  1  0
  6 34  1  0
 11 35  1  0
 13 36  1  0
 14 37  1  0
 15 38  1  0
 16 39  1  0
 17 40  1  0
 19 41  1  0
 20 42  1  0
 24 43  1  0
 24 44  1  0
M  END
>  <meeko>  (290) 
{"is_sidechain": false}

>  <CID>  (290) 
Z2611810317

>  <pose_index>  (290) 
2

>  <docking_score>  (290) 
-8.534

>  <rmsd_to_best_selected>  (290) 
0.0

>  <MWT>  (290) 
324.38799999999964

>  <TPSA>  (290) 
78.96

>  <logP>  (290) 
2.5692000000000004

>  <HBD>  (290) 
2

>  <HBA>  (290) 
6

>  <SMILES>  (290) 
[H]c1c([H])c([H])c(N([H])c2nc(N3C([H])([H])C([H])([H])C([H])(C([H])([H])OC([H])([H])[H])C3([H])[H])nc3nc([H])n([H])c23)c([H])c1[H]

$$$$
Z2611810317_pose3
     RDKit          3D

 44 47  0  0  0  0  0  0  0  0999 V2000
   -1.9265   44.1688   54.6201 C   0  0  0  0  0  0  0  0  0  0  0  0
   -0.8873   43.5294   55.3493 O   0  0  0  0  0  0  0  0  0  0  0  0
    0.0049   44.4435   55.9870 C   0  0  0  0  0  0  0  0  0  0  0  0
    1.4524   44.2152   55.5703 C   0  0  0  0  0  0  0  0  0  0  0  0
    2.4102   45.2754   56.1133 C   0  0  0  0  0  0  0  0  0  0  0  0
    3.6163   45.1354   55.1870 C   0  0  0  0  0  0  0  0  0  0  0  0
    3.0010   44.8372   53.9089 N   0  0  0  0  0  0  0  0  0  0  0  0
    3.7823   44.5066   52.8277 C   0  0  0  0  0  0  0  0  0  0  0  0
    4.7439   45.3828   52.4612 N   0  0  0  0  0  0  0  0  0  0  0  0
    5.5773   45.1404   51.4252 C   0  0  0  0  0  0  0  0  0  0  0  0
    6.5641   46.0452   51.0179 N   0  0  0  0  0  0  0  0  0  0  0  0
    7.8311   46.3578   51.5478 C   0  0  0  0  0  0  0  0  0  0  0  0
    9.0379   45.9148   50.9980 C   0  0  0  0  0  0  0  0  0  0  0  0
   10.2661   46.2410   51.5843 C   0  0  0  0  0  0  0  0  0  0  0  0
   10.3079   47.0153   52.7389 C   0  0  0  0  0  0  0  0  0  0  0  0
    9.1206   47.4635   53.3075 C   0  0  0  0  0  0  0  0  0  0  0  0
    7.8964   47.1342   52.7178 C   0  0  0  0  0  0  0  0  0  0  0  0
    5.3707   43.9372   50.7740 C   0  0  0  0  0  0  0  0  0  0  0  0
    5.9514   43.2925   49.7160 N   0  0  0  0  0  0  0  0  0  0  0  0
    5.2948   42.1056   49.5396 C   0  0  0  0  0  0  0  0  0  0  0  0
    4.3318   41.9506   50.4186 N   0  0  0  0  0  0  0  0  0  0  0  0
    4.3733   43.0816   51.1940 C   0  0  0  0  0  0  0  0  0  0  0  0
    3.5579   43.3380   52.2233 N   0  0  0  0  0  0  0  0  0  0  0  0
    1.6592   44.2861   54.0493 C   0  0  0  0  0  0  0  0  0  0  0  0
   -2.6334   44.6354   55.3219 H   0  0  0  0  0  0  0  0  0  0  0  0
   -1.4945   44.9413   53.9669 H   0  0  0  0  0  0  0  0  0  0  0  0
   -2.4559   43.4245   54.0071 H   0  0  0  0  0  0  0  0  0  0  0  0
   -0.2847   45.4695   55.7160 H   0  0  0  0  0  0  0  0  0  0  0  0
   -0.0646   44.2832   57.0730 H   0  0  0  0  0  0  0  0  0  0  0  0
    1.6647   43.2151   55.9763 H   0  0  0  0  0  0  0  0  0  0  0  0
    1.9705   46.2813   56.0443 H   0  0  0  0  0  0  0  0  0  0  0  0
    2.6559   45.1412   57.1770 H   0  0  0  0  0  0  0  0  0  0  0  0
    4.1927   46.0712   55.1415 H   0  0  0  0  0  0  0  0  0  0  0  0
    4.3340   44.3695   55.5162 H   0  0  0  0  0  0  0  0  0  0  0  0
    6.3372   46.5709   50.1884 H   0  0  0  0  0  0  0  0  0  0  0  0
    9.0217   45.2982   50.0873 H   0  0  0  0  0  0  0  0  0  0  0  0
   11.2021   45.8836   51.1301 H   0  0  0  0  0  0  0  0  0  0  0  0
   11.2736   47.2714   53.1992 H   0  0  0  0  0  0  0  0  0  0  0  0
    9.1445   48.0766   54.2205 H   0  0  0  0  0  0  0  0  0  0  0  0
    6.9639   47.4906   53.1797 H   0  0  0  0  0  0  0  0  0  0  0  0
    6.7304   43.6199   49.1636 H   0  0  0  0  0  0  0  0  0  0  0  0
    5.5427   41.3720   48.7583 H   0  0  0  0  0  0  0  0  0  0  0  0
    0.9132   44.9459   53.5822 H   0  0  0  0  0  0  0  0  0  0  0  0
    1.5459   43.3087   53.5575 H   0  0  0  0  0  0  0  0  0  0  0  0
  1  2  1  0
  2  3  1  0
  3  4  1  0
  4  5  1  0
  5  6  1  0
  6  7  1  0
  7  8  1  0
  8  9  2  0
  9 10  1  0
 10 11  1  0
 11 12  1  0
 12 13  2  0
 13 14  1  0
 14 15  2  0
 15 16  1  0
 16 17  2  0
 10 18  2  0
 18 19  1  0
 19 20  1  0
 20 21  2  0
 21 22  1  0
 22 23  2  0
  7 24  1  0
 24  4  1  0
 23  8  1  0
 17 12  1  0
 22 18  1  0
  1 25  1  0
  1 26  1  0
  1 27  1  0
  3 28  1  0
  3 29  1  0
  4 30  1  0
  5 31  1  0
  5 32  1  0
  6 33  1  0
  6 34  1  0
 11 35  1  0
 13 36  1  0
 14 37  1  0
 15 38  1  0
 16 39  1  0
 17 40  1  0
 19 41  1  0
 20 42  1  0
 24 43  1  0
 24 44  1  0
M  END
>  <meeko>  (291) 
{"is_sidechain": false}

>  <CID>  (291) 
Z2611810317

>  <pose_index>  (291) 
3

>  <docking_score>  (291) 
-8.507

>  <rmsd_to_best_selected>  (291) 
1.1590667901031566

>  <MWT>  (291) 
324.38799999999964

>  <TPSA>  (291) 
78.96

>  <logP>  (291) 
2.5692000000000004

>  <HBD>  (291) 
2

>  <HBA>  (291) 
6

>  <SMILES>  (291) 
[H]c1c([H])c([H])c(N([H])c2nc(N3C([H])([H])C([H])([H])C([H])(C([H])([H])OC([H])([H])[H])C3([H])[H])nc3nc([H])n([H])c23)c([H])c1[H]

$$$$
Z2611810317_pose4
     RDKit          3D

 44 47  0  0  0  0  0  0  0  0999 V2000
   -0.5819   43.0471   56.5210 C   0  0  0  0  0  0  0  0  0  0  0  0
    0.1152   43.8608   55.5864 O   0  0  0  0  0  0  0  0  0  0  0  0
    1.0294   44.7721   56.1958 C   0  0  0  0  0  0  0  0  0  0  0  0
    2.0915   45.2550   55.2175 C   0  0  0  0  0  0  0  0  0  0  0  0
    1.7322   46.5802   54.5440 C   0  0  0  0  0  0  0  0  0  0  0  0
    2.6333   46.5789   53.3115 C   0  0  0  0  0  0  0  0  0  0  0  0
    2.6457   45.1803   52.9295 N   0  0  0  0  0  0  0  0  0  0  0  0
    3.4712   44.7490   51.9191 C   0  0  0  0  0  0  0  0  0  0  0  0
    4.7941   44.9868   52.0492 N   0  0  0  0  0  0  0  0  0  0  0  0
    5.6904   44.5840   51.1202 C   0  0  0  0  0  0  0  0  0  0  0  0
    7.0624   44.8414   51.2286 N   0  0  0  0  0  0  0  0  0  0  0  0
    7.8316   45.4317   52.2494 C   0  0  0  0  0  0  0  0  0  0  0  0
    7.2866   46.0994   53.3504 C   0  0  0  0  0  0  0  0  0  0  0  0
    8.1052   46.6862   54.3221 C   0  0  0  0  0  0  0  0  0  0  0  0
    9.4892   46.6187   54.2060 C   0  0  0  0  0  0  0  0  0  0  0  0
   10.0559   45.9641   53.1176 C   0  0  0  0  0  0  0  0  0  0  0  0
    9.2325   45.3806   52.1488 C   0  0  0  0  0  0  0  0  0  0  0  0
    5.1523   43.9157   50.0355 C   0  0  0  0  0  0  0  0  0  0  0  0
    5.6549   43.3436   48.8991 N   0  0  0  0  0  0  0  0  0  0  0  0
    4.6051   42.8243   48.1946 C   0  0  0  0  0  0  0  0  0  0  0  0
    3.4617   43.0271   48.8089 N   0  0  0  0  0  0  0  0  0  0  0  0
    3.7912   43.7004   49.9569 C   0  0  0  0  0  0  0  0  0  0  0  0
    2.9188   44.1057   50.8880 N   0  0  0  0  0  0  0  0  0  0  0  0
    2.3040   44.2959   54.0355 C   0  0  0  0  0  0  0  0  0  0  0  0
   -0.9996   42.1705   56.0041 H   0  0  0  0  0  0  0  0  0  0  0  0
    0.1125   42.7133   57.3062 H   0  0  0  0  0  0  0  0  0  0  0  0
   -1.3978   43.6278   56.9759 H   0  0  0  0  0  0  0  0  0  0  0  0
    0.4684   45.6418   56.5686 H   0  0  0  0  0  0  0  0  0  0  0  0
    1.5381   44.2449   57.0164 H   0  0  0  0  0  0  0  0  0  0  0  0
    2.9842   45.3389   55.8548 H   0  0  0  0  0  0  0  0  0  0  0  0
    0.6699   46.6065   54.2598 H   0  0  0  0  0  0  0  0  0  0  0  0
    1.8783   47.4560   55.1933 H   0  0  0  0  0  0  0  0  0  0  0  0
    2.2121   47.2053   52.5113 H   0  0  0  0  0  0  0  0  0  0  0  0
    3.6359   46.9890   53.5024 H   0  0  0  0  0  0  0  0  0  0  0  0
    7.6090   44.5467   50.4353 H   0  0  0  0  0  0  0  0  0  0  0  0
    6.1935   46.1648   53.4548 H   0  0  0  0  0  0  0  0  0  0  0  0
    7.6519   47.2027   55.1810 H   0  0  0  0  0  0  0  0  0  0  0  0
   10.1319   47.0802   54.9702 H   0  0  0  0  0  0  0  0  0  0  0  0
   11.1498   45.9053   53.0186 H   0  0  0  0  0  0  0  0  0  0  0  0
    9.6917   44.8704   51.2892 H   0  0  0  0  0  0  0  0  0  0  0  0
    6.6249   43.2998   48.6238 H   0  0  0  0  0  0  0  0  0  0  0  0
    4.7052   42.3012   47.2321 H   0  0  0  0  0  0  0  0  0  0  0  0
    1.3848   43.7325   53.8175 H   0  0  0  0  0  0  0  0  0  0  0  0
    3.0799   43.5416   54.2331 H   0  0  0  0  0  0  0  0  0  0  0  0
  1  2  1  0
  2  3  1  0
  3  4  1  0
  4  5  1  0
  5  6  1  0
  6  7  1  0
  7  8  1  0
  8  9  2  0
  9 10  1  0
 10 11  1  0
 11 12  1  0
 12 13  2  0
 13 14  1  0
 14 15  2  0
 15 16  1  0
 16 17  2  0
 10 18  2  0
 18 19  1  0
 19 20  1  0
 20 21  2  0
 21 22  1  0
 22 23  2  0
  7 24  1  0
 24  4  1  0
 23  8  1  0
 17 12  1  0
 22 18  1  0
  1 25  1  0
  1 26  1  0
  1 27  1  0
  3 28  1  0
  3 29  1  0
  4 30  1  0
  5 31  1  0
  5 32  1  0
  6 33  1  0
  6 34  1  0
 11 35  1  0
 13 36  1  0
 14 37  1  0
 15 38  1  0
 16 39  1  0
 17 40  1  0
 19 41  1  0
 20 42  1  0
 24 43  1  0
 24 44  1  0
M  END
>  <meeko>  (292) 
{"is_sidechain": false}

>  <CID>  (292) 
Z2611810317

>  <pose_index>  (292) 
4

>  <docking_score>  (292) 
-8.489

>  <rmsd_to_best_selected>  (292) 
1.7650276575854977

>  <MWT>  (292) 
324.38799999999964

>  <TPSA>  (292) 
78.96

>  <logP>  (292) 
2.5692000000000004

>  <HBD>  (292) 
2

>  <HBA>  (292) 
6

>  <SMILES>  (292) 
[H]c1c([H])c([H])c(N([H])c2nc(N3C([H])([H])C([H])([H])C([H])(C([H])([H])OC([H])([H])[H])C3([H])[H])nc3nc([H])n([H])c23)c([H])c1[H]

$$$$
Z2611810317_pose6
     RDKit          3D

 44 47  0  0  0  0  0  0  0  0999 V2000
   -1.5274   43.1578   55.8371 C   0  0  0  0  0  0  0  0  0  0  0  0
   -1.3577   44.1162   54.8012 O   0  0  0  0  0  0  0  0  0  0  0  0
   -0.5100   45.2049   55.1686 C   0  0  0  0  0  0  0  0  0  0  0  0
    0.9609   44.8887   54.9314 C   0  0  0  0  0  0  0  0  0  0  0  0
    1.9066   45.8740   55.6187 C   0  0  0  0  0  0  0  0  0  0  0  0
    3.2100   45.6723   54.8492 C   0  0  0  0  0  0  0  0  0  0  0  0
    2.7450   45.4393   53.4955 N   0  0  0  0  0  0  0  0  0  0  0  0
    3.6358   45.0784   52.5132 C   0  0  0  0  0  0  0  0  0  0  0  0
    4.8912   44.7567   52.8955 N   0  0  0  0  0  0  0  0  0  0  0  0
    5.8337   44.3692   52.0076 C   0  0  0  0  0  0  0  0  0  0  0  0
    7.1450   44.0524   52.3841 N   0  0  0  0  0  0  0  0  0  0  0  0
    8.2962   44.8476   52.5386 C   0  0  0  0  0  0  0  0  0  0  0  0
    8.5369   45.6670   53.6452 C   0  0  0  0  0  0  0  0  0  0  0  0
    9.6923   46.4526   53.7308 C   0  0  0  0  0  0  0  0  0  0  0  0
   10.6304   46.4327   52.7041 C   0  0  0  0  0  0  0  0  0  0  0  0
   10.4121   45.6293   51.5901 C   0  0  0  0  0  0  0  0  0  0  0  0
    9.2546   44.8479   51.5097 C   0  0  0  0  0  0  0  0  0  0  0  0
    5.4181   44.3283   50.6884 C   0  0  0  0  0  0  0  0  0  0  0  0
    6.0026   44.0044   49.4952 N   0  0  0  0  0  0  0  0  0  0  0  0
    5.0626   44.1617   48.5147 C   0  0  0  0  0  0  0  0  0  0  0  0
    3.9138   44.5652   49.0055 N   0  0  0  0  0  0  0  0  0  0  0  0
    4.1225   44.6676   50.3579 C   0  0  0  0  0  0  0  0  0  0  0  0
    3.2021   45.0478   51.2519 N   0  0  0  0  0  0  0  0  0  0  0  0
    1.3644   44.9745   53.4507 C   0  0  0  0  0  0  0  0  0  0  0  0
   -2.2851   42.4204   55.5338 H   0  0  0  0  0  0  0  0  0  0  0  0
   -0.5716   42.6461   56.0233 H   0  0  0  0  0  0  0  0  0  0  0  0
   -1.8567   43.6653   56.7558 H   0  0  0  0  0  0  0  0  0  0  0  0
   -0.7846   46.0862   54.5704 H   0  0  0  0  0  0  0  0  0  0  0  0
   -0.6475   45.3945   56.2434 H   0  0  0  0  0  0  0  0  0  0  0  0
    1.0560   43.8692   55.3335 H   0  0  0  0  0  0  0  0  0  0  0  0
    1.5433   46.9076   55.5213 H   0  0  0  0  0  0  0  0  0  0  0  0
    2.0057   45.7045   56.7011 H   0  0  0  0  0  0  0  0  0  0  0  0
    3.8452   46.5688   54.9022 H   0  0  0  0  0  0  0  0  0  0  0  0
    3.8302   44.8549   55.2457 H   0  0  0  0  0  0  0  0  0  0  0  0
    7.2997   43.0795   52.5895 H   0  0  0  0  0  0  0  0  0  0  0  0
    7.8038   45.6950   54.4649 H   0  0  0  0  0  0  0  0  0  0  0  0
    9.8589   47.0879   54.6132 H   0  0  0  0  0  0  0  0  0  0  0  0
   11.5392   47.0486   52.7728 H   0  0  0  0  0  0  0  0  0  0  0  0
   11.1486   45.6083   50.7733 H   0  0  0  0  0  0  0  0  0  0  0  0
    9.0905   44.2196   50.6218 H   0  0  0  0  0  0  0  0  0  0  0  0
    6.9528   43.6955   49.3529 H   0  0  0  0  0  0  0  0  0  0  0  0
    5.2464   43.9734   47.4466 H   0  0  0  0  0  0  0  0  0  0  0  0
    0.7267   45.6902   52.9112 H   0  0  0  0  0  0  0  0  0  0  0  0
    1.2541   44.0159   52.9225 H   0  0  0  0  0  0  0  0  0  0  0  0
  1  2  1  0
  2  3  1  0
  3  4  1  0
  4  5  1  0
  5  6  1  0
  6  7  1  0
  7  8  1  0
  8  9  2  0
  9 10  1  0
 10 11  1  0
 11 12  1  0
 12 13  2  0
 13 14  1  0
 14 15  2  0
 15 16  1  0
 16 17  2  0
 10 18  2  0
 18 19  1  0
 19 20  1  0
 20 21  2  0
 21 22  1  0
 22 23  2  0
  7 24  1  0
 24  4  1  0
 23  8  1  0
 17 12  1  0
 22 18  1  0
  1 25  1  0
  1 26  1  0
  1 27  1  0
  3 28  1  0
  3 29  1  0
  4 30  1  0
  5 31  1  0
  5 32  1  0
  6 33  1  0
  6 34  1  0
 11 35  1  0
 13 36  1  0
 14 37  1  0
 15 38  1  0
 16 39  1  0
 17 40  1  0
 19 41  1  0
 20 42  1  0
 24 43  1  0
 24 44  1  0
M  END
>  <meeko>  (293) 
{"is_sidechain": false}

>  <CID>  (293) 
Z2611810317

>  <pose_index>  (293) 
6

>  <docking_score>  (293) 
-8.145

>  <rmsd_to_best_selected>  (293) 
1.267649296757763

>  <MWT>  (293) 
324.38799999999964

>  <TPSA>  (293) 
78.96

>  <logP>  (293) 
2.5692000000000004

>  <HBD>  (293) 
2

>  <HBA>  (293) 
6

>  <SMILES>  (293) 
[H]c1c([H])c([H])c(N([H])c2nc(N3C([H])([H])C([H])([H])C([H])(C([H])([H])OC([H])([H])[H])C3([H])[H])nc3nc([H])n([H])c23)c([H])c1[H]

$$$$
Z2611810317_pose7
     RDKit          3D

 44 47  0  0  0  0  0  0  0  0999 V2000
   -1.1067   46.0809   55.6757 C   0  0  0  0  0  0  0  0  0  0  0  0
   -0.8148   45.0068   54.7919 O   0  0  0  0  0  0  0  0  0  0  0  0
   -0.1703   43.9035   55.4303 C   0  0  0  0  0  0  0  0  0  0  0  0
    1.2731   43.7426   54.9732 C   0  0  0  0  0  0  0  0  0  0  0  0
    2.2535   44.6199   55.7536 C   0  0  0  0  0  0  0  0  0  0  0  0
    3.4627   44.6715   54.8240 C   0  0  0  0  0  0  0  0  0  0  0  0
    2.8500   44.7006   53.5097 N   0  0  0  0  0  0  0  0  0  0  0  0
    3.6316   44.6159   52.3821 C   0  0  0  0  0  0  0  0  0  0  0  0
    4.8002   45.2921   52.3805 N   0  0  0  0  0  0  0  0  0  0  0  0
    5.6480   45.2554   51.3291 C   0  0  0  0  0  0  0  0  0  0  0  0
    6.8539   45.9681   51.3010 N   0  0  0  0  0  0  0  0  0  0  0  0
    7.9690   45.9627   52.1594 C   0  0  0  0  0  0  0  0  0  0  0  0
    7.9644   46.5008   53.4503 C   0  0  0  0  0  0  0  0  0  0  0  0
    9.1130   46.4856   54.2496 C   0  0  0  0  0  0  0  0  0  0  0  0
   10.2939   45.9326   53.7664 C   0  0  0  0  0  0  0  0  0  0  0  0
   10.3264   45.3957   52.4842 C   0  0  0  0  0  0  0  0  0  0  0  0
    9.1759   45.4135   51.6900 C   0  0  0  0  0  0  0  0  0  0  0  0
    5.2295   44.4791   50.2628 C   0  0  0  0  0  0  0  0  0  0  0  0
    5.7418   44.1557   49.0358 N   0  0  0  0  0  0  0  0  0  0  0  0
    4.8463   43.3288   48.4158 C   0  0  0  0  0  0  0  0  0  0  0  0
    3.7949   43.1025   49.1693 N   0  0  0  0  0  0  0  0  0  0  0  0
    4.0252   43.8092   50.3221 C   0  0  0  0  0  0  0  0  0  0  0  0
    3.1989   43.8567   51.3733 N   0  0  0  0  0  0  0  0  0  0  0  0
    1.4941   44.1664   53.5136 C   0  0  0  0  0  0  0  0  0  0  0  0
   -0.4990   46.9561   55.4024 H   0  0  0  0  0  0  0  0  0  0  0  0
   -2.1737   46.3376   55.6009 H   0  0  0  0  0  0  0  0  0  0  0  0
   -0.8734   45.7803   56.7078 H   0  0  0  0  0  0  0  0  0  0  0  0
   -0.1821   44.0665   56.5181 H   0  0  0  0  0  0  0  0  0  0  0  0
   -0.7163   42.9881   55.1586 H   0  0  0  0  0  0  0  0  0  0  0  0
    1.4564   42.6695   55.1305 H   0  0  0  0  0  0  0  0  0  0  0  0
    1.8394   45.6248   55.9234 H   0  0  0  0  0  0  0  0  0  0  0  0
    2.4872   44.2317   56.7560 H   0  0  0  0  0  0  0  0  0  0  0  0
    4.0626   45.5760   55.0026 H   0  0  0  0  0  0  0  0  0  0  0  0
    4.1584   43.8310   54.9639 H   0  0  0  0  0  0  0  0  0  0  0  0
    6.9518   46.5981   50.5217 H   0  0  0  0  0  0  0  0  0  0  0  0
    7.0390   46.9452   53.8454 H   0  0  0  0  0  0  0  0  0  0  0  0
    9.0816   46.9123   55.2630 H   0  0  0  0  0  0  0  0  0  0  0  0
   11.1967   45.9199   54.3947 H   0  0  0  0  0  0  0  0  0  0  0  0
   11.2570   44.9571   52.0949 H   0  0  0  0  0  0  0  0  0  0  0  0
    9.2154   44.9889   50.6760 H   0  0  0  0  0  0  0  0  0  0  0  0
    6.6233   44.4597   48.6506 H   0  0  0  0  0  0  0  0  0  0  0  0
    4.9890   42.9056   47.4106 H   0  0  0  0  0  0  0  0  0  0  0  0
    0.7682   44.9369   53.2148 H   0  0  0  0  0  0  0  0  0  0  0  0
    1.3614   43.3362   52.8043 H   0  0  0  0  0  0  0  0  0  0  0  0
  1  2  1  0
  2  3  1  0
  3  4  1  0
  4  5  1  0
  5  6  1  0
  6  7  1  0
  7  8  1  0
  8  9  2  0
  9 10  1  0
 10 11  1  0
 11 12  1  0
 12 13  2  0
 13 14  1  0
 14 15  2  0
 15 16  1  0
 16 17  2  0
 10 18  2  0
 18 19  1  0
 19 20  1  0
 20 21  2  0
 21 22  1  0
 22 23  2  0
  7 24  1  0
 24  4  1  0
 23  8  1  0
 17 12  1  0
 22 18  1  0
  1 25  1  0
  1 26  1  0
  1 27  1  0
  3 28  1  0
  3 29  1  0
  4 30  1  0
  5 31  1  0
  5 32  1  0
  6 33  1  0
  6 34  1  0
 11 35  1  0
 13 36  1  0
 14 37  1  0
 15 38  1  0
 16 39  1  0
 17 40  1  0
 19 41  1  0
 20 42  1  0
 24 43  1  0
 24 44  1  0
M  END
>  <meeko>  (294) 
{"is_sidechain": false}

>  <CID>  (294) 
Z2611810317

>  <pose_index>  (294) 
7

>  <docking_score>  (294) 
-8.047

>  <rmsd_to_best_selected>  (294) 
1.0334886890078296

>  <MWT>  (294) 
324.38799999999964

>  <TPSA>  (294) 
78.96

>  <logP>  (294) 
2.5692000000000004

>  <HBD>  (294) 
2

>  <HBA>  (294) 
6

>  <SMILES>  (294) 
[H]c1c([H])c([H])c(N([H])c2nc(N3C([H])([H])C([H])([H])C([H])(C([H])([H])OC([H])([H])[H])C3([H])[H])nc3nc([H])n([H])c23)c([H])c1[H]

$$$$
Z2613622720_pose2
     RDKit          3D

 41 44  0  0  0  0  0  0  0  0999 V2000
    0.8641   45.6155   56.8422 F   0  0  0  0  0  0  0  0  0  0  0  0
    1.2861   45.9184   55.5857 C   0  0  0  0  0  0  0  0  0  0  0  0
    1.4481   44.6402   54.7727 C   0  0  0  0  0  0  0  0  0  0  0  0
    2.7107   44.7243   53.8909 C   0  0  0  0  0  0  0  0  0  0  0  0
    2.7963   43.5449   53.0111 N   0  0  0  0  0  0  0  0  0  0  0  0
    3.9567   43.5010   52.2252 C   0  0  0  0  0  0  0  0  0  0  0  0
    4.6506   44.6537   52.0697 N   0  0  0  0  0  0  0  0  0  0  0  0
    5.8012   44.6826   51.3657 C   0  0  0  0  0  0  0  0  0  0  0  0
    6.4765   45.9034   51.2282 N   0  0  0  0  0  0  0  0  0  0  0  0
    7.6523   46.3066   51.8980 C   0  0  0  0  0  0  0  0  0  0  0  0
    7.6323   46.9456   53.1433 C   0  0  0  0  0  0  0  0  0  0  0  0
    8.8199   47.3672   53.7464 C   0  0  0  0  0  0  0  0  0  0  0  0
   10.0381   47.1735   53.0996 C   0  0  0  0  0  0  0  0  0  0  0  0
   10.0688   46.5697   51.8456 C   0  0  0  0  0  0  0  0  0  0  0  0
    8.8801   46.1505   51.2450 C   0  0  0  0  0  0  0  0  0  0  0  0
    6.1939   43.4997   50.7871 C   0  0  0  0  0  0  0  0  0  0  0  0
    7.2281   43.1159   49.9793 N   0  0  0  0  0  0  0  0  0  0  0  0
    7.0777   41.7805   49.7294 C   0  0  0  0  0  0  0  0  0  0  0  0
    6.0078   41.2925   50.3196 N   0  0  0  0  0  0  0  0  0  0  0  0
    5.4476   42.3593   50.9745 C   0  0  0  0  0  0  0  0  0  0  0  0
    4.3246   42.3252   51.7037 N   0  0  0  0  0  0  0  0  0  0  0  0
    1.5616   43.2637   52.2612 C   0  0  0  0  0  0  0  0  0  0  0  0
    0.3611   43.2377   53.2180 C   0  0  0  0  0  0  0  0  0  0  0  0
    0.2613   44.4553   53.9738 O   0  0  0  0  0  0  0  0  0  0  0  0
    0.5451   46.5693   55.0987 H   0  0  0  0  0  0  0  0  0  0  0  0
    2.2546   46.4369   55.6433 H   0  0  0  0  0  0  0  0  0  0  0  0
    1.5727   43.7757   55.4413 H   0  0  0  0  0  0  0  0  0  0  0  0
    2.6638   45.6345   53.2750 H   0  0  0  0  0  0  0  0  0  0  0  0
    3.5994   44.7545   54.5384 H   0  0  0  0  0  0  0  0  0  0  0  0
    5.7659   46.6331   51.2825 H   0  0  0  0  0  0  0  0  0  0  0  0
    6.6723   47.1175   53.6520 H   0  0  0  0  0  0  0  0  0  0  0  0
    8.7928   47.8527   54.7331 H   0  0  0  0  0  0  0  0  0  0  0  0
   10.9740   47.4970   53.5786 H   0  0  0  0  0  0  0  0  0  0  0  0
   11.0285   46.4229   51.3285 H   0  0  0  0  0  0  0  0  0  0  0  0
    8.9090   45.6917   50.2457 H   0  0  0  0  0  0  0  0  0  0  0  0
    7.9652   43.7178   49.6386 H   0  0  0  0  0  0  0  0  0  0  0  0
    7.7666   41.1866   49.1108 H   0  0  0  0  0  0  0  0  0  0  0  0
    1.4080   44.0476   51.5050 H   0  0  0  0  0  0  0  0  0  0  0  0
    1.6528   42.2840   51.7693 H   0  0  0  0  0  0  0  0  0  0  0  0
   -0.5600   43.1049   52.6317 H   0  0  0  0  0  0  0  0  0  0  0  0
    0.5011   42.4052   53.9234 H   0  0  0  0  0  0  0  0  0  0  0  0
  1  2  1  0
  2  3  1  0
  3  4  1  0
  4  5  1  0
  5  6  1  0
  6  7  2  0
  7  8  1  0
  8  9  1  0
  9 10  1  0
 10 11  2  0
 11 12  1  0
 12 13  2  0
 13 14  1  0
 14 15  2  0
  8 16  2  0
 16 17  1  0
 17 18  1  0
 18 19  2  0
 19 20  1  0
 20 21  2  0
  5 22  1  0
 22 23  1  0
 23 24  1  0
 24  3  1  0
 21  6  1  0
 15 10  1  0
 20 16  1  0
  2 25  1  0
  2 26  1  0
  3 27  1  0
  4 28  1  0
  4 29  1  0
  9 30  1  0
 11 31  1  0
 12 32  1  0
 13 33  1  0
 14 34  1  0
 15 35  1  0
 17 36  1  0
 18 37  1  0
 22 38  1  0
 22 39  1  0
 23 40  1  0
 23 41  1  0
M  END
>  <meeko>  (295) 
{"is_sidechain": false}

>  <CID>  (295) 
Z2613622720

>  <pose_index>  (295) 
2

>  <docking_score>  (295) 
-8.947

>  <rmsd_to_best_selected>  (295) 
0.0

>  <MWT>  (295) 
328.3509999999998

>  <TPSA>  (295) 
78.96000000000001

>  <logP>  (295) 
2.2712000000000003

>  <HBD>  (295) 
2

>  <HBA>  (295) 
6

>  <SMILES>  (295) 
[H]c1c([H])c([H])c(N([H])c2nc(N3C([H])([H])C([H])([H])OC([H])(C([H])([H])F)C3([H])[H])nc3nc([H])n([H])c23)c([H])c1[H]

$$$$
Z2613622720_pose3
     RDKit          3D

 41 44  0  0  0  0  0  0  0  0999 V2000
    3.5913   46.9732   55.1163 F   0  0  0  0  0  0  0  0  0  0  0  0
    2.3256   46.5052   55.2774 C   0  0  0  0  0  0  0  0  0  0  0  0
    2.1902   45.1431   54.6084 C   0  0  0  0  0  0  0  0  0  0  0  0
    3.3812   44.8936   53.6594 C   0  0  0  0  0  0  0  0  0  0  0  0
    3.1838   43.6355   52.9167 N   0  0  0  0  0  0  0  0  0  0  0  0
    4.2569   43.2903   52.0821 C   0  0  0  0  0  0  0  0  0  0  0  0
    5.3742   44.0530   52.1526 N   0  0  0  0  0  0  0  0  0  0  0  0
    6.4654   43.7572   51.4148 C   0  0  0  0  0  0  0  0  0  0  0  0
    7.5917   44.5843   51.5178 N   0  0  0  0  0  0  0  0  0  0  0  0
    7.7265   45.7434   52.3128 C   0  0  0  0  0  0  0  0  0  0  0  0
    7.8708   45.6952   53.7048 C   0  0  0  0  0  0  0  0  0  0  0  0
    7.9559   46.8714   54.4538 C   0  0  0  0  0  0  0  0  0  0  0  0
    7.8738   48.1100   53.8206 C   0  0  0  0  0  0  0  0  0  0  0  0
    7.6968   48.1727   52.4411 C   0  0  0  0  0  0  0  0  0  0  0  0
    7.6125   46.9942   51.6945 C   0  0  0  0  0  0  0  0  0  0  0  0
    6.3574   42.6799   50.5676 C   0  0  0  0  0  0  0  0  0  0  0  0
    7.1749   42.0934   49.6432 N   0  0  0  0  0  0  0  0  0  0  0  0
    6.4942   41.0340   49.1102 C   0  0  0  0  0  0  0  0  0  0  0  0
    5.2918   40.9165   49.6310 N   0  0  0  0  0  0  0  0  0  0  0  0
    5.1963   41.9429   50.5347 C   0  0  0  0  0  0  0  0  0  0  0  0
    4.1274   42.2171   51.2943 N   0  0  0  0  0  0  0  0  0  0  0  0
    1.8680   43.5201   52.2681 C   0  0  0  0  0  0  0  0  0  0  0  0
    0.7553   43.8218   53.2810 C   0  0  0  0  0  0  0  0  0  0  0  0
    0.9358   45.1079   53.8965 O   0  0  0  0  0  0  0  0  0  0  0  0
    2.1059   46.4084   56.3509 H   0  0  0  0  0  0  0  0  0  0  0  0
    1.6168   47.2086   54.8161 H   0  0  0  0  0  0  0  0  0  0  0  0
    2.2001   44.3439   55.3641 H   0  0  0  0  0  0  0  0  0  0  0  0
    3.4594   45.7280   52.9469 H   0  0  0  0  0  0  0  0  0  0  0  0
    4.3044   44.8196   54.2529 H   0  0  0  0  0  0  0  0  0  0  0  0
    7.9032   44.7670   50.5644 H   0  0  0  0  0  0  0  0  0  0  0  0
    7.9176   44.7212   54.2138 H   0  0  0  0  0  0  0  0  0  0  0  0
    8.0879   46.8196   55.5446 H   0  0  0  0  0  0  0  0  0  0  0  0
    7.9486   49.0361   54.4095 H   0  0  0  0  0  0  0  0  0  0  0  0
    7.6234   49.1488   51.9393 H   0  0  0  0  0  0  0  0  0  0  0  0
    7.4546   47.0502   50.6073 H   0  0  0  0  0  0  0  0  0  0  0  0
    8.1107   42.3930   49.4082 H   0  0  0  0  0  0  0  0  0  0  0  0
    6.9019   40.3624   48.3403 H   0  0  0  0  0  0  0  0  0  0  0  0
    1.8078   44.2374   51.4363 H   0  0  0  0  0  0  0  0  0  0  0  0
    1.7417   42.4959   51.8873 H   0  0  0  0  0  0  0  0  0  0  0  0
   -0.2141   43.8074   52.7614 H   0  0  0  0  0  0  0  0  0  0  0  0
    0.7897   43.0551   54.0690 H   0  0  0  0  0  0  0  0  0  0  0  0
  1  2  1  0
  2  3  1  0
  3  4  1  0
  4  5  1  0
  5  6  1  0
  6  7  2  0
  7  8  1  0
  8  9  1  0
  9 10  1  0
 10 11  2  0
 11 12  1  0
 12 13  2  0
 13 14  1  0
 14 15  2  0
  8 16  2  0
 16 17  1  0
 17 18  1  0
 18 19  2  0
 19 20  1  0
 20 21  2  0
  5 22  1  0
 22 23  1  0
 23 24  1  0
 24  3  1  0
 21  6  1  0
 15 10  1  0
 20 16  1  0
  2 25  1  0
  2 26  1  0
  3 27  1  0
  4 28  1  0
  4 29  1  0
  9 30  1  0
 11 31  1  0
 12 32  1  0
 13 33  1  0
 14 34  1  0
 15 35  1  0
 17 36  1  0
 18 37  1  0
 22 38  1  0
 22 39  1  0
 23 40  1  0
 23 41  1  0
M  END
>  <meeko>  (296) 
{"is_sidechain": false}

>  <CID>  (296) 
Z2613622720

>  <pose_index>  (296) 
3

>  <docking_score>  (296) 
-8.947

>  <rmsd_to_best_selected>  (296) 
1.6520556968727267

>  <MWT>  (296) 
328.3509999999998

>  <TPSA>  (296) 
78.96000000000001

>  <logP>  (296) 
2.2712000000000003

>  <HBD>  (296) 
2

>  <HBA>  (296) 
6

>  <SMILES>  (296) 
[H]c1c([H])c([H])c(N([H])c2nc(N3C([H])([H])C([H])([H])OC([H])(C([H])([H])F)C3([H])[H])nc3nc([H])n([H])c23)c([H])c1[H]

$$$$
Z2613622720_pose6
     RDKit          3D

 41 44  0  0  0  0  0  0  0  0999 V2000
    3.3641   46.5699   55.7267 F   0  0  0  0  0  0  0  0  0  0  0  0
    2.0471   46.3063   55.5217 C   0  0  0  0  0  0  0  0  0  0  0  0
    1.8967   45.0630   54.6553 C   0  0  0  0  0  0  0  0  0  0  0  0
    3.2320   44.7354   53.9552 C   0  0  0  0  0  0  0  0  0  0  0  0
    3.0523   43.6107   53.0185 N   0  0  0  0  0  0  0  0  0  0  0  0
    4.2362   43.1948   52.3920 C   0  0  0  0  0  0  0  0  0  0  0  0
    5.3529   43.9262   52.6167 N   0  0  0  0  0  0  0  0  0  0  0  0
    6.5397   43.5649   52.0863 C   0  0  0  0  0  0  0  0  0  0  0  0
    7.6634   44.3623   52.3416 N   0  0  0  0  0  0  0  0  0  0  0  0
    7.7371   45.7714   52.2893 C   0  0  0  0  0  0  0  0  0  0  0  0
    8.9337   46.4600   52.0566 C   0  0  0  0  0  0  0  0  0  0  0  0
    8.9650   47.8562   52.0589 C   0  0  0  0  0  0  0  0  0  0  0  0
    7.8022   48.5802   52.3162 C   0  0  0  0  0  0  0  0  0  0  0  0
    6.6126   47.9084   52.5835 C   0  0  0  0  0  0  0  0  0  0  0  0
    6.5849   46.5112   52.5808 C   0  0  0  0  0  0  0  0  0  0  0  0
    6.5347   42.4524   51.2780 C   0  0  0  0  0  0  0  0  0  0  0  0
    7.4725   41.7976   50.5293 N   0  0  0  0  0  0  0  0  0  0  0  0
    6.8517   40.7351   49.9354 C   0  0  0  0  0  0  0  0  0  0  0  0
    5.5756   40.6785   50.2506 N   0  0  0  0  0  0  0  0  0  0  0  0
    5.3688   41.7494   51.0822 C   0  0  0  0  0  0  0  0  0  0  0  0
    4.1992   42.0903   51.6386 N   0  0  0  0  0  0  0  0  0  0  0  0
    1.9176   43.7717   52.0954 C   0  0  0  0  0  0  0  0  0  0  0  0
    0.6495   44.1328   52.8814 C   0  0  0  0  0  0  0  0  0  0  0  0
    0.8461   45.3002   53.6954 O   0  0  0  0  0  0  0  0  0  0  0  0
    1.5537   46.1378   56.4903 H   0  0  0  0  0  0  0  0  0  0  0  0
    1.5812   47.1622   55.0114 H   0  0  0  0  0  0  0  0  0  0  0  0
    1.6302   44.1952   55.2766 H   0  0  0  0  0  0  0  0  0  0  0  0
    3.5776   45.6196   53.3995 H   0  0  0  0  0  0  0  0  0  0  0  0
    3.9767   44.4550   54.7147 H   0  0  0  0  0  0  0  0  0  0  0  0
    8.4366   43.9462   51.8240 H   0  0  0  0  0  0  0  0  0  0  0  0
    9.8591   45.8953   51.8699 H   0  0  0  0  0  0  0  0  0  0  0  0
    9.9083   48.3851   51.8576 H   0  0  0  0  0  0  0  0  0  0  0  0
    7.8244   49.6800   52.3080 H   0  0  0  0  0  0  0  0  0  0  0  0
    5.6952   48.4767   52.7965 H   0  0  0  0  0  0  0  0  0  0  0  0
    5.6460   45.9861   52.8107 H   0  0  0  0  0  0  0  0  0  0  0  0
    8.4450   42.0585   50.4433 H   0  0  0  0  0  0  0  0  0  0  0  0
    7.3569   40.0152   49.2748 H   0  0  0  0  0  0  0  0  0  0  0  0
    2.1426   44.5746   51.3779 H   0  0  0  0  0  0  0  0  0  0  0  0
    1.7525   42.8266   51.5574 H   0  0  0  0  0  0  0  0  0  0  0  0
   -0.1677   44.3266   52.1710 H   0  0  0  0  0  0  0  0  0  0  0  0
    0.4032   43.2894   53.5432 H   0  0  0  0  0  0  0  0  0  0  0  0
  1  2  1  0
  2  3  1  0
  3  4  1  0
  4  5  1  0
  5  6  1  0
  6  7  2  0
  7  8  1  0
  8  9  1  0
  9 10  1  0
 10 11  2  0
 11 12  1  0
 12 13  2  0
 13 14  1  0
 14 15  2  0
  8 16  2  0
 16 17  1  0
 17 18  1  0
 18 19  2  0
 19 20  1  0
 20 21  2  0
  5 22  1  0
 22 23  1  0
 23 24  1  0
 24  3  1  0
 21  6  1  0
 15 10  1  0
 20 16  1  0
  2 25  1  0
  2 26  1  0
  3 27  1  0
  4 28  1  0
  4 29  1  0
  9 30  1  0
 11 31  1  0
 12 32  1  0
 13 33  1  0
 14 34  1  0
 15 35  1  0
 17 36  1  0
 18 37  1  0
 22 38  1  0
 22 39  1  0
 23 40  1  0
 23 41  1  0
M  END
>  <meeko>  (297) 
{"is_sidechain": false}

>  <CID>  (297) 
Z2613622720

>  <pose_index>  (297) 
6

>  <docking_score>  (297) 
-8.483

>  <rmsd_to_best_selected>  (297) 
1.602027911447068

>  <MWT>  (297) 
328.3509999999998

>  <TPSA>  (297) 
78.96000000000001

>  <logP>  (297) 
2.2712000000000003

>  <HBD>  (297) 
2

>  <HBA>  (297) 
6

>  <SMILES>  (297) 
[H]c1c([H])c([H])c(N([H])c2nc(N3C([H])([H])C([H])([H])OC([H])(C([H])([H])F)C3([H])[H])nc3nc([H])n([H])c23)c([H])c1[H]

$$$$
Z2613622720_pose8
     RDKit          3D

 41 44  0  0  0  0  0  0  0  0999 V2000
    1.4461   47.1400   54.4799 F   0  0  0  0  0  0  0  0  0  0  0  0
    1.3191   46.1536   55.4062 C   0  0  0  0  0  0  0  0  0  0  0  0
    1.4852   44.7945   54.7385 C   0  0  0  0  0  0  0  0  0  0  0  0
    2.8350   44.7260   53.9941 C   0  0  0  0  0  0  0  0  0  0  0  0
    2.9378   43.4624   53.2425 N   0  0  0  0  0  0  0  0  0  0  0  0
    4.1685   43.2822   52.5945 C   0  0  0  0  0  0  0  0  0  0  0  0
    5.2216   44.0112   53.0351 N   0  0  0  0  0  0  0  0  0  0  0  0
    6.4471   43.8612   52.4930 C   0  0  0  0  0  0  0  0  0  0  0  0
    7.5005   44.6471   52.9789 N   0  0  0  0  0  0  0  0  0  0  0  0
    7.8835   45.9300   52.5292 C   0  0  0  0  0  0  0  0  0  0  0  0
    7.0207   47.0324   52.5625 C   0  0  0  0  0  0  0  0  0  0  0  0
    7.4291   48.2713   52.0635 C   0  0  0  0  0  0  0  0  0  0  0  0
    8.6979   48.4165   51.5056 C   0  0  0  0  0  0  0  0  0  0  0  0
    9.5530   47.3200   51.4363 C   0  0  0  0  0  0  0  0  0  0  0  0
    9.1409   46.0816   51.9347 C   0  0  0  0  0  0  0  0  0  0  0  0
    6.5499   42.9703   51.4508 C   0  0  0  0  0  0  0  0  0  0  0  0
    7.5567   42.5712   50.6173 N   0  0  0  0  0  0  0  0  0  0  0  0
    7.0352   41.6383   49.7641 C   0  0  0  0  0  0  0  0  0  0  0  0
    5.7583   41.4272   49.9962 N   0  0  0  0  0  0  0  0  0  0  0  0
    5.4457   42.2582   51.0410 C   0  0  0  0  0  0  0  0  0  0  0  0
    4.2378   42.3835   51.6047 N   0  0  0  0  0  0  0  0  0  0  0  0
    1.7722   43.1708   52.3935 C   0  0  0  0  0  0  0  0  0  0  0  0
    0.4807   43.3016   53.2124 C   0  0  0  0  0  0  0  0  0  0  0  0
    0.3781   44.5916   53.8354 O   0  0  0  0  0  0  0  0  0  0  0  0
    2.0915   46.2773   56.1797 H   0  0  0  0  0  0  0  0  0  0  0  0
    0.3216   46.2131   55.8659 H   0  0  0  0  0  0  0  0  0  0  0  0
    1.4867   43.9960   55.4950 H   0  0  0  0  0  0  0  0  0  0  0  0
    2.9077   45.5718   53.2945 H   0  0  0  0  0  0  0  0  0  0  0  0
    3.6528   44.7747   54.7281 H   0  0  0  0  0  0  0  0  0  0  0  0
    8.3127   44.0347   53.0418 H   0  0  0  0  0  0  0  0  0  0  0  0
    6.0115   46.9216   52.9857 H   0  0  0  0  0  0  0  0  0  0  0  0
    6.7481   49.1339   52.1109 H   0  0  0  0  0  0  0  0  0  0  0  0
    9.0229   49.3946   51.1212 H   0  0  0  0  0  0  0  0  0  0  0  0
   10.5522   47.4286   50.9893 H   0  0  0  0  0  0  0  0  0  0  0  0
    9.8137   45.2146   51.8589 H   0  0  0  0  0  0  0  0  0  0  0  0
    8.5089   42.9069   50.6396 H   0  0  0  0  0  0  0  0  0  0  0  0
    7.6130   41.1273   48.9799 H   0  0  0  0  0  0  0  0  0  0  0  0
    1.7454   43.8820   51.5548 H   0  0  0  0  0  0  0  0  0  0  0  0
    1.8535   42.1435   52.0088 H   0  0  0  0  0  0  0  0  0  0  0  0
   -0.3815   43.1580   52.5446 H   0  0  0  0  0  0  0  0  0  0  0  0
    0.4961   42.5376   54.0036 H   0  0  0  0  0  0  0  0  0  0  0  0
  1  2  1  0
  2  3  1  0
  3  4  1  0
  4  5  1  0
  5  6  1  0
  6  7  2  0
  7  8  1  0
  8  9  1  0
  9 10  1  0
 10 11  2  0
 11 12  1  0
 12 13  2  0
 13 14  1  0
 14 15  2  0
  8 16  2  0
 16 17  1  0
 17 18  1  0
 18 19  2  0
 19 20  1  0
 20 21  2  0
  5 22  1  0
 22 23  1  0
 23 24  1  0
 24  3  1  0
 21  6  1  0
 15 10  1  0
 20 16  1  0
  2 25  1  0
  2 26  1  0
  3 27  1  0
  4 28  1  0
  4 29  1  0
  9 30  1  0
 11 31  1  0
 12 32  1  0
 13 33  1  0
 14 34  1  0
 15 35  1  0
 17 36  1  0
 18 37  1  0
 22 38  1  0
 22 39  1  0
 23 40  1  0
 23 41  1  0
M  END
>  <meeko>  (298) 
{"is_sidechain": false}

>  <CID>  (298) 
Z2613622720

>  <pose_index>  (298) 
8

>  <docking_score>  (298) 
-8.089

>  <rmsd_to_best_selected>  (298) 
1.3169518653274686

>  <MWT>  (298) 
328.3509999999998

>  <TPSA>  (298) 
78.96000000000001

>  <logP>  (298) 
2.2712000000000003

>  <HBD>  (298) 
2

>  <HBA>  (298) 
6

>  <SMILES>  (298) 
[H]c1c([H])c([H])c(N([H])c2nc(N3C([H])([H])C([H])([H])OC([H])(C([H])([H])F)C3([H])[H])nc3nc([H])n([H])c23)c([H])c1[H]

$$$$
Z2613622720_pose9
     RDKit          3D

 41 44  0  0  0  0  0  0  0  0999 V2000
    0.6092   46.8810   55.7448 F   0  0  0  0  0  0  0  0  0  0  0  0
    0.9856   46.5642   54.4780 C   0  0  0  0  0  0  0  0  0  0  0  0
    1.4498   45.1139   54.4236 C   0  0  0  0  0  0  0  0  0  0  0  0
    2.6847   44.9822   53.5106 C   0  0  0  0  0  0  0  0  0  0  0  0
    3.0537   43.5630   53.3554 N   0  0  0  0  0  0  0  0  0  0  0  0
    4.2162   43.3544   52.5992 C   0  0  0  0  0  0  0  0  0  0  0  0
    5.3503   43.9702   53.0098 N   0  0  0  0  0  0  0  0  0  0  0  0
    6.5183   43.7820   52.3613 C   0  0  0  0  0  0  0  0  0  0  0  0
    7.6596   44.4512   52.8221 N   0  0  0  0  0  0  0  0  0  0  0  0
    8.0467   45.7767   52.5267 C   0  0  0  0  0  0  0  0  0  0  0  0
    9.1540   46.0821   51.7256 C   0  0  0  0  0  0  0  0  0  0  0  0
    9.5245   47.4102   51.4985 C   0  0  0  0  0  0  0  0  0  0  0  0
    8.8054   48.4466   52.0893 C   0  0  0  0  0  0  0  0  0  0  0  0
    7.7231   48.1554   52.9164 C   0  0  0  0  0  0  0  0  0  0  0  0
    7.3555   46.8268   53.1413 C   0  0  0  0  0  0  0  0  0  0  0  0
    6.4761   42.9767   51.2484 C   0  0  0  0  0  0  0  0  0  0  0  0
    7.3862   42.5803   50.3080 N   0  0  0  0  0  0  0  0  0  0  0  0
    6.7346   41.7614   49.4289 C   0  0  0  0  0  0  0  0  0  0  0  0
    5.4656   41.6196   49.7451 N   0  0  0  0  0  0  0  0  0  0  0  0
    5.2955   42.3791   50.8737 C   0  0  0  0  0  0  0  0  0  0  0  0
    4.1453   42.5395   51.5399 N   0  0  0  0  0  0  0  0  0  0  0  0
    1.9329   42.6883   52.9743 C   0  0  0  0  0  0  0  0  0  0  0  0
    0.7428   42.9202   53.9157 C   0  0  0  0  0  0  0  0  0  0  0  0
    0.3548   44.3039   53.9460 O   0  0  0  0  0  0  0  0  0  0  0  0
    0.1311   46.6997   53.7987 H   0  0  0  0  0  0  0  0  0  0  0  0
    1.8123   47.2214   54.1702 H   0  0  0  0  0  0  0  0  0  0  0  0
    1.7456   44.7694   55.4255 H   0  0  0  0  0  0  0  0  0  0  0  0
    2.4535   45.4077   52.5229 H   0  0  0  0  0  0  0  0  0  0  0  0
    3.5269   45.5245   53.9652 H   0  0  0  0  0  0  0  0  0  0  0  0
    8.4430   43.8126   52.6857 H   0  0  0  0  0  0  0  0  0  0  0  0
    9.7379   45.2685   51.2707 H   0  0  0  0  0  0  0  0  0  0  0  0
   10.3851   47.6375   50.8522 H   0  0  0  0  0  0  0  0  0  0  0  0
    9.0915   49.4923   51.9031 H   0  0  0  0  0  0  0  0  0  0  0  0
    7.1584   48.9709   53.3919 H   0  0  0  0  0  0  0  0  0  0  0  0
    6.5116   46.6030   53.8104 H   0  0  0  0  0  0  0  0  0  0  0  0
    8.3603   42.8474   50.2805 H   0  0  0  0  0  0  0  0  0  0  0  0
    7.2127   41.2799   48.5631 H   0  0  0  0  0  0  0  0  0  0  0  0
    1.6296   42.9139   51.9413 H   0  0  0  0  0  0  0  0  0  0  0  0
    2.2527   41.6385   53.0482 H   0  0  0  0  0  0  0  0  0  0  0  0
   -0.1097   42.3178   53.5687 H   0  0  0  0  0  0  0  0  0  0  0  0
    1.0446   42.6248   54.9314 H   0  0  0  0  0  0  0  0  0  0  0  0
  1  2  1  0
  2  3  1  0
  3  4  1  0
  4  5  1  0
  5  6  1  0
  6  7  2  0
  7  8  1  0
  8  9  1  0
  9 10  1  0
 10 11  2  0
 11 12  1  0
 12 13  2  0
 13 14  1  0
 14 15  2  0
  8 16  2  0
 16 17  1  0
 17 18  1  0
 18 19  2  0
 19 20  1  0
 20 21  2  0
  5 22  1  0
 22 23  1  0
 23 24  1  0
 24  3  1  0
 21  6  1  0
 15 10  1  0
 20 16  1  0
  2 25  1  0
  2 26  1  0
  3 27  1  0
  4 28  1  0
  4 29  1  0
  9 30  1  0
 11 31  1  0
 12 32  1  0
 13 33  1  0
 14 34  1  0
 15 35  1  0
 17 36  1  0
 18 37  1  0
 22 38  1  0
 22 39  1  0
 23 40  1  0
 23 41  1  0
M  END
>  <meeko>  (299) 
{"is_sidechain": false}

>  <CID>  (299) 
Z2613622720

>  <pose_index>  (299) 
9

>  <docking_score>  (299) 
-7.863

>  <rmsd_to_best_selected>  (299) 
1.234799108023074

>  <MWT>  (299) 
328.3509999999998

>  <TPSA>  (299) 
78.96000000000001

>  <logP>  (299) 
2.2712000000000003

>  <HBD>  (299) 
2

>  <HBA>  (299) 
6

>  <SMILES>  (299) 
[H]c1c([H])c([H])c(N([H])c2nc(N3C([H])([H])C([H])([H])OC([H])(C([H])([H])F)C3([H])[H])nc3nc([H])n([H])c23)c([H])c1[H]

$$$$
Z2613622720_pose10
     RDKit          3D

 41 44  0  0  0  0  0  0  0  0999 V2000
   -0.8470   46.1037   54.3133 F   0  0  0  0  0  0  0  0  0  0  0  0
    0.4734   46.2357   54.6120 C   0  0  0  0  0  0  0  0  0  0  0  0
    1.1527   44.8737   54.5639 C   0  0  0  0  0  0  0  0  0  0  0  0
    2.3714   44.9180   53.6200 C   0  0  0  0  0  0  0  0  0  0  0  0
    2.9496   43.5694   53.4734 N   0  0  0  0  0  0  0  0  0  0  0  0
    4.1121   43.5295   52.6882 C   0  0  0  0  0  0  0  0  0  0  0  0
    5.2318   44.0952   53.1983 N   0  0  0  0  0  0  0  0  0  0  0  0
    6.3994   44.0571   52.5243 C   0  0  0  0  0  0  0  0  0  0  0  0
    7.5260   44.6659   53.0929 N   0  0  0  0  0  0  0  0  0  0  0  0
    8.1863   45.8276   52.6361 C   0  0  0  0  0  0  0  0  0  0  0  0
    7.5510   47.0720   52.5399 C   0  0  0  0  0  0  0  0  0  0  0  0
    8.2335   48.1833   52.0394 C   0  0  0  0  0  0  0  0  0  0  0  0
    9.5526   48.0578   51.6086 C   0  0  0  0  0  0  0  0  0  0  0  0
   10.1854   46.8188   51.6674 C   0  0  0  0  0  0  0  0  0  0  0  0
    9.5007   45.7092   52.1677 C   0  0  0  0  0  0  0  0  0  0  0  0
    6.3724   43.4580   51.2868 C   0  0  0  0  0  0  0  0  0  0  0  0
    7.2851   43.2588   50.2895 N   0  0  0  0  0  0  0  0  0  0  0  0
    6.6498   42.5883   49.2821 C   0  0  0  0  0  0  0  0  0  0  0  0
    5.3873   42.3584   49.5716 N   0  0  0  0  0  0  0  0  0  0  0  0
    5.2047   42.9026   50.8165 C   0  0  0  0  0  0  0  0  0  0  0  0
    4.0550   42.9116   51.5035 N   0  0  0  0  0  0  0  0  0  0  0  0
    1.9684   42.5276   53.1314 C   0  0  0  0  0  0  0  0  0  0  0  0
    0.7796   42.5901   54.1011 C   0  0  0  0  0  0  0  0  0  0  0  0
    0.1845   43.8971   54.1248 O   0  0  0  0  0  0  0  0  0  0  0  0
    0.9478   46.9063   53.8804 H   0  0  0  0  0  0  0  0  0  0  0  0
    0.5764   46.6571   55.6228 H   0  0  0  0  0  0  0  0  0  0  0  0
    1.5211   44.5953   55.5623 H   0  0  0  0  0  0  0  0  0  0  0  0
    2.0541   45.2867   52.6334 H   0  0  0  0  0  0  0  0  0  0  0  0
    3.1311   45.5905   54.0450 H   0  0  0  0  0  0  0  0  0  0  0  0
    8.1989   43.9202   53.2707 H   0  0  0  0  0  0  0  0  0  0  0  0
    6.5042   47.1753   52.8616 H   0  0  0  0  0  0  0  0  0  0  0  0
    7.7287   49.1591   51.9853 H   0  0  0  0  0  0  0  0  0  0  0  0
   10.0927   48.9351   51.2231 H   0  0  0  0  0  0  0  0  0  0  0  0
   11.2239   46.7140   51.3200 H   0  0  0  0  0  0  0  0  0  0  0  0
   10.0002   44.7295   52.1942 H   0  0  0  0  0  0  0  0  0  0  0  0
    8.2514   43.5539   50.3073 H   0  0  0  0  0  0  0  0  0  0  0  0
    7.1346   42.2788   48.3444 H   0  0  0  0  0  0  0  0  0  0  0  0
    1.6097   42.6877   52.1039 H   0  0  0  0  0  0  0  0  0  0  0  0
    2.4471   41.5402   53.2088 H   0  0  0  0  0  0  0  0  0  0  0  0
    0.0217   41.8585   53.7843 H   0  0  0  0  0  0  0  0  0  0  0  0
    1.1479   42.3614   55.1121 H   0  0  0  0  0  0  0  0  0  0  0  0
  1  2  1  0
  2  3  1  0
  3  4  1  0
  4  5  1  0
  5  6  1  0
  6  7  2  0
  7  8  1  0
  8  9  1  0
  9 10  1  0
 10 11  2  0
 11 12  1  0
 12 13  2  0
 13 14  1  0
 14 15  2  0
  8 16  2  0
 16 17  1  0
 17 18  1  0
 18 19  2  0
 19 20  1  0
 20 21  2  0
  5 22  1  0
 22 23  1  0
 23 24  1  0
 24  3  1  0
 21  6  1  0
 15 10  1  0
 20 16  1  0
  2 25  1  0
  2 26  1  0
  3 27  1  0
  4 28  1  0
  4 29  1  0
  9 30  1  0
 11 31  1  0
 12 32  1  0
 13 33  1  0
 14 34  1  0
 15 35  1  0
 17 36  1  0
 18 37  1  0
 22 38  1  0
 22 39  1  0
 23 40  1  0
 23 41  1  0
M  END
>  <meeko>  (300) 
{"is_sidechain": false}

>  <CID>  (300) 
Z2613622720

>  <pose_index>  (300) 
10

>  <docking_score>  (300) 
-7.788

>  <rmsd_to_best_selected>  (300) 
1.4505197733675241

>  <MWT>  (300) 
328.3509999999998

>  <TPSA>  (300) 
78.96000000000001

>  <logP>  (300) 
2.2712000000000003

>  <HBD>  (300) 
2

>  <HBA>  (300) 
6

>  <SMILES>  (300) 
[H]c1c([H])c([H])c(N([H])c2nc(N3C([H])([H])C([H])([H])OC([H])(C([H])([H])F)C3([H])[H])nc3nc([H])n([H])c23)c([H])c1[H]

$$$$
Z2654643499_pose3
     RDKit          3D

 50 53  0  0  0  0  0  0  0  0999 V2000
   -2.5902   44.0276   55.7587 C   0  0  0  0  0  0  0  0  0  0  0  0
   -2.1257   43.2044   54.7385 C   0  0  0  0  0  0  0  0  0  0  0  0
   -0.7820   43.2615   54.3514 C   0  0  0  0  0  0  0  0  0  0  0  0
    0.1191   44.1276   54.9598 C   0  0  0  0  0  0  0  0  0  0  0  0
    1.3997   44.1556   54.5606 N   0  0  0  0  0  0  0  0  0  0  0  0
    2.2342   44.9983   55.1814 C   0  0  0  0  0  0  0  0  0  0  0  0
    3.5462   44.9638   54.7132 N   0  0  0  0  0  0  0  0  0  0  0  0
    3.8723   45.9252   53.6691 C   0  0  0  0  0  0  0  0  0  0  0  0
    4.5983   47.1447   54.2649 C   0  0  0  0  0  0  0  0  0  0  0  0
    5.9495   46.7696   54.8802 C   0  0  0  0  0  0  0  0  0  0  0  0
    6.8974   46.0850   53.8852 C   0  0  0  0  0  0  0  0  0  0  0  0
    7.4037   47.0487   52.7869 N   0  0  0  0  0  4  0  0  0  0  0  0
    8.2469   48.2193   53.2517 C   0  0  0  0  0  0  0  0  0  0  0  0
    9.5974   47.7453   53.7689 C   0  0  0  0  0  0  0  0  0  0  0  0
   10.2412   46.6904   52.8730 C   0  0  0  0  0  0  0  0  0  0  0  0
    9.5697   46.6285   51.5094 C   0  0  0  0  0  0  0  0  0  0  0  0
    8.0809   46.3135   51.6233 C   0  0  0  0  0  0  0  0  0  0  0  0
    6.1719   44.8873   53.2325 C   0  0  0  0  0  0  0  0  0  0  0  0
    4.7980   45.2385   52.6479 C   0  0  0  0  0  0  0  0  0  0  0  0
    1.8755   45.8318   56.1612 N   0  0  0  0  0  0  0  0  0  0  0  0
    0.5847   45.7873   56.5457 C   0  0  0  0  0  0  0  0  0  0  0  0
   -0.3603   44.9485   55.9818 C   0  0  0  0  0  0  0  0  0  0  0  0
   -1.7094   44.9045   56.3858 C   0  0  0  0  0  0  0  0  0  0  0  0
   -3.6452   43.9862   56.0676 H   0  0  0  0  0  0  0  0  0  0  0  0
   -2.8141   42.5088   54.2362 H   0  0  0  0  0  0  0  0  0  0  0  0
   -0.4294   42.6031   53.5438 H   0  0  0  0  0  0  0  0  0  0  0  0
    3.6600   43.9800   54.4722 H   0  0  0  0  0  0  0  0  0  0  0  0
    2.9448   46.2680   53.1872 H   0  0  0  0  0  0  0  0  0  0  0  0
    4.7652   47.8826   53.4664 H   0  0  0  0  0  0  0  0  0  0  0  0
    3.9656   47.5567   55.0649 H   0  0  0  0  0  0  0  0  0  0  0  0
    6.4324   47.6866   55.2490 H   0  0  0  0  0  0  0  0  0  0  0  0
    5.7522   46.0523   55.6905 H   0  0  0  0  0  0  0  0  0  0  0  0
    7.7791   45.7440   54.4478 H   0  0  0  0  0  0  0  0  0  0  0  0
    6.5643   47.4833   52.3874 H   0  0  0  0  0  0  0  0  0  0  0  0
    8.4057   48.9063   52.4074 H   0  0  0  0  0  0  0  0  0  0  0  0
    7.7175   48.7306   54.0692 H   0  0  0  0  0  0  0  0  0  0  0  0
   10.2725   48.6114   53.8318 H   0  0  0  0  0  0  0  0  0  0  0  0
    9.4297   47.2838   54.7533 H   0  0  0  0  0  0  0  0  0  0  0  0
   11.3041   46.9384   52.7366 H   0  0  0  0  0  0  0  0  0  0  0  0
   10.1257   45.7099   53.3582 H   0  0  0  0  0  0  0  0  0  0  0  0
    9.6904   47.6006   51.0089 H   0  0  0  0  0  0  0  0  0  0  0  0
   10.0457   45.8233   50.9307 H   0  0  0  0  0  0  0  0  0  0  0  0
    7.5867   46.6089   50.6860 H   0  0  0  0  0  0  0  0  0  0  0  0
    7.9848   45.2343   51.8134 H   0  0  0  0  0  0  0  0  0  0  0  0
    6.8049   44.4989   52.4211 H   0  0  0  0  0  0  0  0  0  0  0  0
    6.0017   44.1451   54.0264 H   0  0  0  0  0  0  0  0  0  0  0  0
    4.9425   45.9159   51.7934 H   0  0  0  0  0  0  0  0  0  0  0  0
    4.3165   44.2968   52.3455 H   0  0  0  0  0  0  0  0  0  0  0  0
    0.2630   46.4579   57.3562 H   0  0  0  0  0  0  0  0  0  0  0  0
   -2.0653   45.5606   57.1937 H   0  0  0  0  0  0  0  0  0  0  0  0
  1  2  2  0
  2  3  1  0
  3  4  2  0
  4  5  1  0
  5  6  2  0
  6  7  1  0
  7  8  1  0
  8  9  1  0
  9 10  1  0
 10 11  1  0
 11 12  1  0
 12 13  1  0
 13 14  1  0
 14 15  1  0
 15 16  1  0
 16 17  1  0
 11 18  1  0
 18 19  1  0
  6 20  1  0
 20 21  2  0
 21 22  1  0
 22 23  2  0
 23  1  1  0
 22  4  1  0
 19  8  1  0
 17 12  1  0
  1 24  1  0
  2 25  1  0
  3 26  1  0
  7 27  1  0
  8 28  1  0
  9 29  1  0
  9 30  1  0
 10 31  1  0
 10 32  1  0
 11 33  1  0
 12 34  1  0
 13 35  1  0
 13 36  1  0
 14 37  1  0
 14 38  1  0
 15 39  1  0
 15 40  1  0
 16 41  1  0
 16 42  1  0
 17 43  1  0
 17 44  1  0
 18 45  1  0
 18 46  1  0
 19 47  1  0
 19 48  1  0
 21 49  1  0
 23 50  1  0
M  CHG  1  12   1
M  END
>  <meeko>  (301) 
{"is_sidechain": false}

>  <CID>  (301) 
Z2654643499

>  <pose_index>  (301) 
3

>  <docking_score>  (301) 
-8.394

>  <rmsd_to_best_selected>  (301) 
1.6548222414377962

>  <MWT>  (301) 
311.4529999999995

>  <TPSA>  (301) 
42.25

>  <logP>  (301) 
2.4216999999999995

>  <HBD>  (301) 
2

>  <HBA>  (301) 
3

>  <SMILES>  (301) 
[H]c1c([H])c([H])c2c([H])nc(N([H])C3([H])C([H])([H])C([H])([H])C([H])([N+]4([H])C([H])([H])C([H])([H])C([H])([H])C([H])([H])C4([H])[H])C([H])([H])C3([H])[H])nc2c1[H]

$$$$
Z2654643499_pose1
     RDKit          3D

 50 53  0  0  0  0  0  0  0  0999 V2000
   -2.4750   44.7420   56.3160 C   0  0  0  0  0  0  0  0  0  0  0  0
   -1.6450   45.5070   57.1280 C   0  0  0  0  0  0  0  0  0  0  0  0
   -0.2830   45.6180   56.8280 C   0  0  0  0  0  0  0  0  0  0  0  0
    0.2790   44.9790   55.7300 C   0  0  0  0  0  0  0  0  0  0  0  0
    1.5900   45.1080   55.4740 N   0  0  0  0  0  0  0  0  0  0  0  0
    2.0870   44.4820   54.4010 C   0  0  0  0  0  0  0  0  0  0  0  0
    3.4530   44.6700   54.2020 N   0  0  0  0  0  0  0  0  0  0  0  0
    3.8610   46.0160   53.8260 C   0  0  0  0  0  0  0  0  0  0  0  0
    4.8460   46.5910   54.8580 C   0  0  0  0  0  0  0  0  0  0  0  0
    6.1530   45.7950   54.9180 C   0  0  0  0  0  0  0  0  0  0  0  0
    6.8710   45.7110   53.5630 C   0  0  0  0  0  0  0  0  0  0  0  0
    7.4500   47.0720   53.1130 N   0  0  0  0  0  4  0  0  0  0  0  0
    8.5320   47.6710   53.9900 C   0  0  0  0  0  0  0  0  0  0  0  0
    9.8110   46.8490   53.9130 C   0  0  0  0  0  0  0  0  0  0  0  0
   10.1700   46.4400   52.4860 C   0  0  0  0  0  0  0  0  0  0  0  0
    9.3840   47.2420   51.4590 C   0  0  0  0  0  0  0  0  0  0  0  0
    7.8780   47.0740   51.6400 C   0  0  0  0  0  0  0  0  0  0  0  0
    5.8860   45.1870   52.4960 C   0  0  0  0  0  0  0  0  0  0  0  0
    4.5540   45.9480   52.4530 C   0  0  0  0  0  0  0  0  0  0  0  0
    1.3700   43.7190   53.5710 N   0  0  0  0  0  0  0  0  0  0  0  0
    0.0560   43.6040   53.8470 C   0  0  0  0  0  0  0  0  0  0  0  0
   -0.5640   44.2140   54.9230 C   0  0  0  0  0  0  0  0  0  0  0  0
   -1.9390   44.0910   55.2080 C   0  0  0  0  0  0  0  0  0  0  0  0
   -3.5467   44.6518   56.5472 H   0  0  0  0  0  0  0  0  0  0  0  0
   -2.0591   46.0247   58.0058 H   0  0  0  0  0  0  0  0  0  0  0  0
    0.3603   46.2279   57.4793 H   0  0  0  0  0  0  0  0  0  0  0  0
    3.6750   43.9290   53.5370 H   0  0  0  0  0  0  0  0  0  0  0  0
    2.9749   46.6665   53.7852 H   0  0  0  0  0  0  0  0  0  0  0  0
    5.0772   47.6313   54.5853 H   0  0  0  0  0  0  0  0  0  0  0  0
    4.3697   46.5323   55.8478 H   0  0  0  0  0  0  0  0  0  0  0  0
    6.8254   46.2803   55.6408 H   0  0  0  0  0  0  0  0  0  0  0  0
    5.8976   44.7679   55.2176 H   0  0  0  0  0  0  0  0  0  0  0  0
    7.7190   45.0201   53.6789 H   0  0  0  0  0  0  0  0  0  0  0  0
    6.6750   47.7420   53.1750 H   0  0  0  0  0  0  0  0  0  0  0  0
    8.7423   48.6967   53.6526 H   0  0  0  0  0  0  0  0  0  0  0  0
    8.1784   47.6739   55.0316 H   0  0  0  0  0  0  0  0  0  0  0  0
   10.6375   47.4465   54.3253 H   0  0  0  0  0  0  0  0  0  0  0  0
    9.6455   45.9265   54.4889 H   0  0  0  0  0  0  0  0  0  0  0  0
   11.2448   46.6104   52.3255 H   0  0  0  0  0  0  0  0  0  0  0  0
    9.9176   45.3769   52.3589 H   0  0  0  0  0  0  0  0  0  0  0  0
    9.6390   48.3065   51.5676 H   0  0  0  0  0  0  0  0  0  0  0  0
    9.6514   46.8713   50.4585 H   0  0  0  0  0  0  0  0  0  0  0  0
    7.3683   47.9033   51.1276 H   0  0  0  0  0  0  0  0  0  0  0  0
    7.6014   46.0980   51.2147 H   0  0  0  0  0  0  0  0  0  0  0  0
    6.3658   45.2724   51.5099 H   0  0  0  0  0  0  0  0  0  0  0  0
    5.6508   44.1459   52.7621 H   0  0  0  0  0  0  0  0  0  0  0  0
    4.7463   46.9737   52.1053 H   0  0  0  0  0  0  0  0  0  0  0  0
    3.8840   45.4045   51.7705 H   0  0  0  0  0  0  0  0  0  0  0  0
   -0.5609   42.9879   53.1763 H   0  0  0  0  0  0  0  0  0  0  0  0
   -2.5857   43.4834   54.5579 H   0  0  0  0  0  0  0  0  0  0  0  0
  1  2  2  0
  2  3  1  0
  3  4  2  0
  4  5  1  0
  5  6  2  0
  6  7  1  0
  7  8  1  0
  8  9  1  0
  9 10  1  0
 10 11  1  0
 11 12  1  0
 12 13  1  0
 13 14  1  0
 14 15  1  0
 15 16  1  0
 16 17  1  0
 11 18  1  0
 18 19  1  0
  6 20  1  0
 20 21  2  0
 21 22  1  0
 22 23  2  0
 23  1  1  0
 22  4  1  0
 19  8  1  0
 17 12  1  0
  1 24  1  0
  2 25  1  0
  3 26  1  0
  7 27  1  0
  8 28  1  0
  9 29  1  0
  9 30  1  0
 10 31  1  0
 10 32  1  0
 11 33  1  0
 12 34  1  0
 13 35  1  0
 13 36  1  0
 14 37  1  0
 14 38  1  0
 15 39  1  0
 15 40  1  0
 16 41  1  0
 16 42  1  0
 17 43  1  0
 17 44  1  0
 18 45  1  0
 18 46  1  0
 19 47  1  0
 19 48  1  0
 21 49  1  0
 23 50  1  0
M  CHG  1  12   1
M  END
>  <meeko>  (302) 
{"is_sidechain": false}

>  <CID>  (302) 
Z2654643499

>  <pose_index>  (302) 
1

>  <docking_score>  (302) 
-8.597

>  <rmsd_to_best_selected>  (302) 
0.0

>  <MWT>  (302) 
311.4529999999995

>  <TPSA>  (302) 
42.25

>  <logP>  (302) 
2.4216999999999995

>  <HBD>  (302) 
2

>  <HBA>  (302) 
3

>  <SMILES>  (302) 
[H]c1c([H])c([H])c2c([H])nc(N([H])C3([H])C([H])([H])C([H])([H])C([H])([N+]4([H])C([H])([H])C([H])([H])C([H])([H])C([H])([H])C4([H])[H])C([H])([H])C3([H])[H])nc2c1[H]

$$$$
Z2654643499_pose4
     RDKit          3D

 50 53  0  0  0  0  0  0  0  0999 V2000
   -1.9226   42.9588   55.0097 C   0  0  0  0  0  0  0  0  0  0  0  0
   -2.0458   44.1014   54.2273 C   0  0  0  0  0  0  0  0  0  0  0  0
   -0.9934   45.0227   54.1647 C   0  0  0  0  0  0  0  0  0  0  0  0
    0.1886   44.8315   54.8694 C   0  0  0  0  0  0  0  0  0  0  0  0
    1.1751   45.7366   54.7865 N   0  0  0  0  0  0  0  0  0  0  0  0
    2.2993   45.5086   55.4760 C   0  0  0  0  0  0  0  0  0  0  0  0
    3.2762   46.4917   55.3319 N   0  0  0  0  0  0  0  0  0  0  0  0
    3.6690   46.8006   53.9647 C   0  0  0  0  0  0  0  0  0  0  0  0
    4.5191   48.0828   53.9234 C   0  0  0  0  0  0  0  0  0  0  0  0
    5.8420   47.9253   54.6774 C   0  0  0  0  0  0  0  0  0  0  0  0
    6.7002   46.7632   54.1572 C   0  0  0  0  0  0  0  0  0  0  0  0
    7.2708   47.0312   52.7454 N   0  0  0  0  0  4  0  0  0  0  0  0
    8.4265   48.0081   52.6584 C   0  0  0  0  0  0  0  0  0  0  0  0
    9.6800   47.4255   53.2965 C   0  0  0  0  0  0  0  0  0  0  0  0
    9.9225   45.9684   52.9098 C   0  0  0  0  0  0  0  0  0  0  0  0
    9.0779   45.5590   51.7131 C   0  0  0  0  0  0  0  0  0  0  0  0
    7.5871   45.7398   51.9817 C   0  0  0  0  0  0  0  0  0  0  0  0
    5.8512   45.4725   54.1392 C   0  0  0  0  0  0  0  0  0  0  0  0
    4.5041   45.6267   53.4221 C   0  0  0  0  0  0  0  0  0  0  0  0
    2.5023   44.4468   56.2598 N   0  0  0  0  0  0  0  0  0  0  0  0
    1.4981   43.5510   56.3297 C   0  0  0  0  0  0  0  0  0  0  0  0
    0.2991   43.6812   55.6516 C   0  0  0  0  0  0  0  0  0  0  0  0
   -0.7502   42.7417   55.7268 C   0  0  0  0  0  0  0  0  0  0  0  0
   -2.7463   42.2316   55.0615 H   0  0  0  0  0  0  0  0  0  0  0  0
   -2.9695   44.2814   53.6578 H   0  0  0  0  0  0  0  0  0  0  0  0
   -1.1054   45.9218   53.5410 H   0  0  0  0  0  0  0  0  0  0  0  0
    4.0139   46.1491   55.9472 H   0  0  0  0  0  0  0  0  0  0  0  0
    2.7679   46.9554   53.3532 H   0  0  0  0  0  0  0  0  0  0  0  0
    4.7369   48.3295   52.8738 H   0  0  0  0  0  0  0  0  0  0  0  0
    3.9453   48.8837   54.4127 H   0  0  0  0  0  0  0  0  0  0  0  0
    6.4165   48.8577   54.5740 H   0  0  0  0  0  0  0  0  0  0  0  0
    5.5960   47.7057   55.7268 H   0  0  0  0  0  0  0  0  0  0  0  0
    7.5580   46.6532   54.8370 H   0  0  0  0  0  0  0  0  0  0  0  0
    6.5157   47.4848   52.2192 H   0  0  0  0  0  0  0  0  0  0  0  0
    8.6310   48.2307   51.6007 H   0  0  0  0  0  0  0  0  0  0  0  0
    8.1518   48.9263   53.1983 H   0  0  0  0  0  0  0  0  0  0  0  0
   10.5466   48.0224   52.9760 H   0  0  0  0  0  0  0  0  0  0  0  0
    9.5405   47.4583   54.3871 H   0  0  0  0  0  0  0  0  0  0  0  0
   10.9853   45.8379   52.6581 H   0  0  0  0  0  0  0  0  0  0  0  0
    9.6404   45.3342   53.7632 H   0  0  0  0  0  0  0  0  0  0  0  0
    9.3614   46.1780   50.8491 H   0  0  0  0  0  0  0  0  0  0  0  0
    9.2621   44.4930   51.5140 H   0  0  0  0  0  0  0  0  0  0  0  0
    7.0572   45.7632   51.0180 H   0  0  0  0  0  0  0  0  0  0  0  0
    7.2600   44.8971   52.6084 H   0  0  0  0  0  0  0  0  0  0  0  0
    6.4270   44.6858   53.6297 H   0  0  0  0  0  0  0  0  0  0  0  0
    5.6291   45.2209   55.1867 H   0  0  0  0  0  0  0  0  0  0  0  0
    4.6933   45.7954   52.3517 H   0  0  0  0  0  0  0  0  0  0  0  0
    3.9299   44.7045   53.5952 H   0  0  0  0  0  0  0  0  0  0  0  0
    1.6401   42.6634   56.9637 H   0  0  0  0  0  0  0  0  0  0  0  0
   -0.6422   41.8413   56.3495 H   0  0  0  0  0  0  0  0  0  0  0  0
  1  2  2  0
  2  3  1  0
  3  4  2  0
  4  5  1  0
  5  6  2  0
  6  7  1  0
  7  8  1  0
  8  9  1  0
  9 10  1  0
 10 11  1  0
 11 12  1  0
 12 13  1  0
 13 14  1  0
 14 15  1  0
 15 16  1  0
 16 17  1  0
 11 18  1  0
 18 19  1  0
  6 20  1  0
 20 21  2  0
 21 22  1  0
 22 23  2  0
 23  1  1  0
 22  4  1  0
 19  8  1  0
 17 12  1  0
  1 24  1  0
  2 25  1  0
  3 26  1  0
  7 27  1  0
  8 28  1  0
  9 29  1  0
  9 30  1  0
 10 31  1  0
 10 32  1  0
 11 33  1  0
 12 34  1  0
 13 35  1  0
 13 36  1  0
 14 37  1  0
 14 38  1  0
 15 39  1  0
 15 40  1  0
 16 41  1  0
 16 42  1  0
 17 43  1  0
 17 44  1  0
 18 45  1  0
 18 46  1  0
 19 47  1  0
 19 48  1  0
 21 49  1  0
 23 50  1  0
M  CHG  1  12   1
M  END
>  <meeko>  (303) 
{"is_sidechain": false}

>  <CID>  (303) 
Z2654643499

>  <pose_index>  (303) 
4

>  <docking_score>  (303) 
-8.333

>  <rmsd_to_best_selected>  (303) 
1.2432333062662373

>  <MWT>  (303) 
311.4529999999995

>  <TPSA>  (303) 
42.25

>  <logP>  (303) 
2.4216999999999995

>  <HBD>  (303) 
2

>  <HBA>  (303) 
3

>  <SMILES>  (303) 
[H]c1c([H])c([H])c2c([H])nc(N([H])C3([H])C([H])([H])C([H])([H])C([H])([N+]4([H])C([H])([H])C([H])([H])C([H])([H])C([H])([H])C4([H])[H])C([H])([H])C3([H])[H])nc2c1[H]

$$$$
Z2654643499_pose5
     RDKit          3D

 50 53  0  0  0  0  0  0  0  0999 V2000
   -2.6406   44.5009   55.6316 C   0  0  0  0  0  0  0  0  0  0  0  0
   -2.2580   45.8339   55.5365 C   0  0  0  0  0  0  0  0  0  0  0  0
   -0.9054   46.1639   55.3866 C   0  0  0  0  0  0  0  0  0  0  0  0
    0.0827   45.1888   55.3279 C   0  0  0  0  0  0  0  0  0  0  0  0
    1.3693   45.5431   55.1842 N   0  0  0  0  0  0  0  0  0  0  0  0
    2.2869   44.5708   55.1246 C   0  0  0  0  0  0  0  0  0  0  0  0
    3.5967   45.0193   54.9698 N   0  0  0  0  0  0  0  0  0  0  0  0
    4.0207   45.2777   53.6015 C   0  0  0  0  0  0  0  0  0  0  0  0
    4.3727   46.7638   53.4156 C   0  0  0  0  0  0  0  0  0  0  0  0
    5.5662   47.1887   54.2755 C   0  0  0  0  0  0  0  0  0  0  0  0
    6.8299   46.3586   54.0070 C   0  0  0  0  0  0  0  0  0  0  0  0
    7.4396   46.6380   52.6130 N   0  0  0  0  0  4  0  0  0  0  0  0
    7.7547   48.0851   52.2915 C   0  0  0  0  0  0  0  0  0  0  0  0
    8.9096   48.5926   53.1434 C   0  0  0  0  0  0  0  0  0  0  0  0
   10.0625   47.5951   53.2373 C   0  0  0  0  0  0  0  0  0  0  0  0
    9.9486   46.5064   52.1803 C   0  0  0  0  0  0  0  0  0  0  0  0
    8.6377   45.7333   52.3016 C   0  0  0  0  0  0  0  0  0  0  0  0
    6.4895   44.8570   54.1338 C   0  0  0  0  0  0  0  0  0  0  0  0
    5.2696   44.4250   53.3101 C   0  0  0  0  0  0  0  0  0  0  0  0
    2.0132   43.2663   55.2172 N   0  0  0  0  0  0  0  0  0  0  0  0
    0.7153   42.9332   55.3617 C   0  0  0  0  0  0  0  0  0  0  0  0
   -0.3145   43.8544   55.4247 C   0  0  0  0  0  0  0  0  0  0  0  0
   -1.6720   43.5038   55.5757 C   0  0  0  0  0  0  0  0  0  0  0  0
   -3.7017   44.2364   55.7502 H   0  0  0  0  0  0  0  0  0  0  0  0
   -3.0170   46.6289   55.5789 H   0  0  0  0  0  0  0  0  0  0  0  0
   -0.6176   47.2230   55.3135 H   0  0  0  0  0  0  0  0  0  0  0  0
    4.1254   44.3123   55.4795 H   0  0  0  0  0  0  0  0  0  0  0  0
    3.2023   45.0210   52.9128 H   0  0  0  0  0  0  0  0  0  0  0  0
    4.6180   46.9398   52.3578 H   0  0  0  0  0  0  0  0  0  0  0  0
    3.5022   47.3584   53.7296 H   0  0  0  0  0  0  0  0  0  0  0  0
    5.7903   48.2449   54.0654 H   0  0  0  0  0  0  0  0  0  0  0  0
    5.2860   47.0275   55.3269 H   0  0  0  0  0  0  0  0  0  0  0  0
    7.5829   46.6496   54.7542 H   0  0  0  0  0  0  0  0  0  0  0  0
    6.7145   46.3798   51.9341 H   0  0  0  0  0  0  0  0  0  0  0  0
    8.0281   48.1666   51.2291 H   0  0  0  0  0  0  0  0  0  0  0  0
    6.8648   48.6946   52.5074 H   0  0  0  0  0  0  0  0  0  0  0  0
    9.2882   49.5259   52.7011 H   0  0  0  0  0  0  0  0  0  0  0  0
    8.5245   48.7486   54.1619 H   0  0  0  0  0  0  0  0  0  0  0  0
   11.0118   48.1324   53.0955 H   0  0  0  0  0  0  0  0  0  0  0  0
   10.0252   47.1183   54.2278 H   0  0  0  0  0  0  0  0  0  0  0  0
    9.9973   46.9707   51.1843 H   0  0  0  0  0  0  0  0  0  0  0  0
   10.7778   45.7988   52.3277 H   0  0  0  0  0  0  0  0  0  0  0  0
    8.4475   45.2132   51.3512 H   0  0  0  0  0  0  0  0  0  0  0  0
    8.7460   45.0281   53.1388 H   0  0  0  0  0  0  0  0  0  0  0  0
    7.3595   44.2748   53.7959 H   0  0  0  0  0  0  0  0  0  0  0  0
    6.2431   44.6733   55.1900 H   0  0  0  0  0  0  0  0  0  0  0  0
    5.5163   44.5167   52.2420 H   0  0  0  0  0  0  0  0  0  0  0  0
    5.0338   43.3868   53.5867 H   0  0  0  0  0  0  0  0  0  0  0  0
    0.4599   41.8657   55.4337 H   0  0  0  0  0  0  0  0  0  0  0  0
   -1.9639   42.4458   55.6490 H   0  0  0  0  0  0  0  0  0  0  0  0
  1  2  2  0
  2  3  1  0
  3  4  2  0
  4  5  1  0
  5  6  2  0
  6  7  1  0
  7  8  1  0
  8  9  1  0
  9 10  1  0
 10 11  1  0
 11 12  1  0
 12 13  1  0
 13 14  1  0
 14 15  1  0
 15 16  1  0
 16 17  1  0
 11 18  1  0
 18 19  1  0
  6 20  1  0
 20 21  2  0
 21 22  1  0
 22 23  2  0
 23  1  1  0
 22  4  1  0
 19  8  1  0
 17 12  1  0
  1 24  1  0
  2 25  1  0
  3 26  1  0
  7 27  1  0
  8 28  1  0
  9 29  1  0
  9 30  1  0
 10 31  1  0
 10 32  1  0
 11 33  1  0
 12 34  1  0
 13 35  1  0
 13 36  1  0
 14 37  1  0
 14 38  1  0
 15 39  1  0
 15 40  1  0
 16 41  1  0
 16 42  1  0
 17 43  1  0
 17 44  1  0
 18 45  1  0
 18 46  1  0
 19 47  1  0
 19 48  1  0
 21 49  1  0
 23 50  1  0
M  CHG  1  12   1
M  END
>  <meeko>  (304) 
{"is_sidechain": false}

>  <CID>  (304) 
Z2654643499

>  <pose_index>  (304) 
5

>  <docking_score>  (304) 
-8.328

>  <rmsd_to_best_selected>  (304) 
0.34995649002263574

>  <MWT>  (304) 
311.4529999999995

>  <TPSA>  (304) 
42.25

>  <logP>  (304) 
2.4216999999999995

>  <HBD>  (304) 
2

>  <HBA>  (304) 
3

>  <SMILES>  (304) 
[H]c1c([H])c([H])c2c([H])nc(N([H])C3([H])C([H])([H])C([H])([H])C([H])([N+]4([H])C([H])([H])C([H])([H])C([H])([H])C([H])([H])C4([H])[H])C([H])([H])C3([H])[H])nc2c1[H]

$$$$
Z2654643499_pose6
     RDKit          3D

 50 53  0  0  0  0  0  0  0  0999 V2000
   -2.4113   45.0181   55.8237 C   0  0  0  0  0  0  0  0  0  0  0  0
   -1.9104   46.2272   55.3518 C   0  0  0  0  0  0  0  0  0  0  0  0
   -0.6161   46.2890   54.8250 C   0  0  0  0  0  0  0  0  0  0  0  0
    0.2006   45.1667   54.7573 C   0  0  0  0  0  0  0  0  0  0  0  0
    1.4386   45.2647   54.2456 N   0  0  0  0  0  0  0  0  0  0  0  0
    2.1863   44.1573   54.1918 C   0  0  0  0  0  0  0  0  0  0  0  0
    3.4544   44.3412   53.6445 N   0  0  0  0  0  0  0  0  0  0  0  0
    4.5131   44.6612   54.5910 C   0  0  0  0  0  0  0  0  0  0  0  0
    5.8648   44.1155   54.0962 C   0  0  0  0  0  0  0  0  0  0  0  0
    6.3083   44.7688   52.7852 C   0  0  0  0  0  0  0  0  0  0  0  0
    6.4135   46.2984   52.8768 C   0  0  0  0  0  0  0  0  0  0  0  0
    7.5851   46.7600   53.7733 N   0  0  0  0  0  4  0  0  0  0  0  0
    8.9113   46.0548   53.5690 C   0  0  0  0  0  0  0  0  0  0  0  0
    9.5132   46.4098   52.2169 C   0  0  0  0  0  0  0  0  0  0  0  0
    9.4205   47.9008   51.8968 C   0  0  0  0  0  0  0  0  0  0  0  0
    9.0885   48.7188   53.1350 C   0  0  0  0  0  0  0  0  0  0  0  0
    7.7689   48.2830   53.7671 C   0  0  0  0  0  0  0  0  0  0  0  0
    5.0851   46.8677   53.4237 C   0  0  0  0  0  0  0  0  0  0  0  0
    4.6057   46.1941   54.7154 C   0  0  0  0  0  0  0  0  0  0  0  0
    1.7940   42.9576   54.6305 N   0  0  0  0  0  0  0  0  0  0  0  0
    0.5487   42.8824   55.1395 C   0  0  0  0  0  0  0  0  0  0  0  0
   -0.3125   43.9598   55.2342 C   0  0  0  0  0  0  0  0  0  0  0  0
   -1.6158   43.8781   55.7680 C   0  0  0  0  0  0  0  0  0  0  0  0
   -3.4288   44.9638   56.2379 H   0  0  0  0  0  0  0  0  0  0  0  0
   -2.5318   47.1339   55.3929 H   0  0  0  0  0  0  0  0  0  0  0  0
   -0.2345   47.2518   54.4544 H   0  0  0  0  0  0  0  0  0  0  0  0
    3.2741   45.0325   52.9180 H   0  0  0  0  0  0  0  0  0  0  0  0
    4.2829   44.2020   55.5637 H   0  0  0  0  0  0  0  0  0  0  0  0
    6.6276   44.3099   54.8645 H   0  0  0  0  0  0  0  0  0  0  0  0
    5.7463   43.0374   53.9125 H   0  0  0  0  0  0  0  0  0  0  0  0
    7.2945   44.3664   52.5102 H   0  0  0  0  0  0  0  0  0  0  0  0
    5.5427   44.5384   52.0297 H   0  0  0  0  0  0  0  0  0  0  0  0
    6.6107   46.6794   51.8639 H   0  0  0  0  0  0  0  0  0  0  0  0
    7.3164   46.5201   54.7341 H   0  0  0  0  0  0  0  0  0  0  0  0
    9.6075   46.3598   54.3643 H   0  0  0  0  0  0  0  0  0  0  0  0
    8.7405   44.9687   53.6032 H   0  0  0  0  0  0  0  0  0  0  0  0
   10.5733   46.1163   52.2168 H   0  0  0  0  0  0  0  0  0  0  0  0
    8.9387   45.8713   51.4488 H   0  0  0  0  0  0  0  0  0  0  0  0
   10.3857   48.2400   51.4928 H   0  0  0  0  0  0  0  0  0  0  0  0
    8.6148   48.0458   51.1620 H   0  0  0  0  0  0  0  0  0  0  0  0
    9.8952   48.5919   53.8721 H   0  0  0  0  0  0  0  0  0  0  0  0
    8.9907   49.7718   52.8324 H   0  0  0  0  0  0  0  0  0  0  0  0
    7.7409   48.6443   54.8057 H   0  0  0  0  0  0  0  0  0  0  0  0
    6.9557   48.7116   53.1629 H   0  0  0  0  0  0  0  0  0  0  0  0
    5.2242   47.9405   53.6234 H   0  0  0  0  0  0  0  0  0  0  0  0
    4.3171   46.6767   52.6597 H   0  0  0  0  0  0  0  0  0  0  0  0
    5.3119   46.4392   55.5224 H   0  0  0  0  0  0  0  0  0  0  0  0
    3.5946   46.5706   54.9294 H   0  0  0  0  0  0  0  0  0  0  0  0
    0.1962   41.9053   55.5014 H   0  0  0  0  0  0  0  0  0  0  0  0
   -2.0015   42.9170   56.1387 H   0  0  0  0  0  0  0  0  0  0  0  0
  1  2  2  0
  2  3  1  0
  3  4  2  0
  4  5  1  0
  5  6  2  0
  6  7  1  0
  7  8  1  0
  8  9  1  0
  9 10  1  0
 10 11  1  0
 11 12  1  0
 12 13  1  0
 13 14  1  0
 14 15  1  0
 15 16  1  0
 16 17  1  0
 11 18  1  0
 18 19  1  0
  6 20  1  0
 20 21  2  0
 21 22  1  0
 22 23  2  0
 23  1  1  0
 22  4  1  0
 19  8  1  0
 17 12  1  0
  1 24  1  0
  2 25  1  0
  3 26  1  0
  7 27  1  0
  8 28  1  0
  9 29  1  0
  9 30  1  0
 10 31  1  0
 10 32  1  0
 11 33  1  0
 12 34  1  0
 13 35  1  0
 13 36  1  0
 14 37  1  0
 14 38  1  0
 15 39  1  0
 15 40  1  0
 16 41  1  0
 16 42  1  0
 17 43  1  0
 17 44  1  0
 18 45  1  0
 18 46  1  0
 19 47  1  0
 19 48  1  0
 21 49  1  0
 23 50  1  0
M  CHG  1  12   1
M  END
>  <meeko>  (305) 
{"is_sidechain": false}

>  <CID>  (305) 
Z2654643499

>  <pose_index>  (305) 
6

>  <docking_score>  (305) 
-8.204

>  <rmsd_to_best_selected>  (305) 
1.7240511588175393

>  <MWT>  (305) 
311.4529999999995

>  <TPSA>  (305) 
42.25

>  <logP>  (305) 
2.4216999999999995

>  <HBD>  (305) 
2

>  <HBA>  (305) 
3

>  <SMILES>  (305) 
[H]c1c([H])c([H])c2c([H])nc(N([H])C3([H])C([H])([H])C([H])([H])C([H])([N+]4([H])C([H])([H])C([H])([H])C([H])([H])C([H])([H])C4([H])[H])C([H])([H])C3([H])[H])nc2c1[H]

$$$$
Z2654643499_pose7
     RDKit          3D

 50 53  0  0  0  0  0  0  0  0999 V2000
   -2.3698   44.1680   56.2404 C   0  0  0  0  0  0  0  0  0  0  0  0
   -1.8927   45.4495   56.4890 C   0  0  0  0  0  0  0  0  0  0  0  0
   -0.6648   45.8549   55.9540 C   0  0  0  0  0  0  0  0  0  0  0  0
    0.1071   45.0060   55.1695 C   0  0  0  0  0  0  0  0  0  0  0  0
    1.2802   45.4296   54.6740 N   0  0  0  0  0  0  0  0  0  0  0  0
    1.9860   44.5816   53.9170 C   0  0  0  0  0  0  0  0  0  0  0  0
    3.1885   45.0975   53.4363 N   0  0  0  0  0  0  0  0  0  0  0  0
    4.1262   45.5638   54.4470 C   0  0  0  0  0  0  0  0  0  0  0  0
    5.4095   44.7142   54.4281 C   0  0  0  0  0  0  0  0  0  0  0  0
    6.1701   44.8438   53.1061 C   0  0  0  0  0  0  0  0  0  0  0  0
    6.5496   46.2923   52.7659 C   0  0  0  0  0  0  0  0  0  0  0  0
    7.6329   46.8602   53.7120 N   0  0  0  0  0  4  0  0  0  0  0  0
    8.8739   46.0117   53.9050 C   0  0  0  0  0  0  0  0  0  0  0  0
    9.7012   45.9605   52.6277 C   0  0  0  0  0  0  0  0  0  0  0  0
    9.8434   47.3245   51.9554 C   0  0  0  0  0  0  0  0  0  0  0  0
    9.4468   48.4546   52.8935 C   0  0  0  0  0  0  0  0  0  0  0  0
    8.0069   48.3094   53.3792 C   0  0  0  0  0  0  0  0  0  0  0  0
    5.2854   47.1779   52.8318 C   0  0  0  0  0  0  0  0  0  0  0  0
    4.4895   47.0281   54.1339 C   0  0  0  0  0  0  0  0  0  0  0  0
    1.6133   43.3306   53.6327 N   0  0  0  0  0  0  0  0  0  0  0  0
    0.4324   42.9273   54.1410 C   0  0  0  0  0  0  0  0  0  0  0  0
   -0.3825   43.7219   54.9272 C   0  0  0  0  0  0  0  0  0  0  0  0
   -1.6177   43.2966   55.4576 C   0  0  0  0  0  0  0  0  0  0  0  0
   -3.3343   43.8447   56.6590 H   0  0  0  0  0  0  0  0  0  0  0  0
   -2.4803   46.1451   57.1062 H   0  0  0  0  0  0  0  0  0  0  0  0
   -0.3008   46.8724   56.1598 H   0  0  0  0  0  0  0  0  0  0  0  0
    2.8675   45.7921   52.7630 H   0  0  0  0  0  0  0  0  0  0  0  0
    3.6619   45.4787   55.4405 H   0  0  0  0  0  0  0  0  0  0  0  0
    6.0649   45.0443   55.2476 H   0  0  0  0  0  0  0  0  0  0  0  0
    5.1183   43.6602   54.5479 H   0  0  0  0  0  0  0  0  0  0  0  0
    7.0920   44.2475   53.1733 H   0  0  0  0  0  0  0  0  0  0  0  0
    5.5028   44.4849   52.3087 H   0  0  0  0  0  0  0  0  0  0  0  0
    6.9725   46.2955   51.7505 H   0  0  0  0  0  0  0  0  0  0  0  0
    7.2027   46.8932   54.6432 H   0  0  0  0  0  0  0  0  0  0  0  0
    9.4837   46.4439   54.7121 H   0  0  0  0  0  0  0  0  0  0  0  0
    8.5633   44.9887   54.1639 H   0  0  0  0  0  0  0  0  0  0  0  0
   10.7051   45.5849   52.8749 H   0  0  0  0  0  0  0  0  0  0  0  0
    9.1779   45.2983   51.9223 H   0  0  0  0  0  0  0  0  0  0  0  0
   10.8909   47.4648   51.6502 H   0  0  0  0  0  0  0  0  0  0  0  0
    9.1737   47.3500   51.0831 H   0  0  0  0  0  0  0  0  0  0  0  0
   10.1188   48.4468   53.7643 H   0  0  0  0  0  0  0  0  0  0  0  0
    9.5272   49.4021   52.3405 H   0  0  0  0  0  0  0  0  0  0  0  0
    7.8781   48.9218   54.2839 H   0  0  0  0  0  0  0  0  0  0  0  0
    7.3481   48.6413   52.5632 H   0  0  0  0  0  0  0  0  0  0  0  0
    5.5934   48.2293   52.7331 H   0  0  0  0  0  0  0  0  0  0  0  0
    4.6248   46.8531   52.0145 H   0  0  0  0  0  0  0  0  0  0  0  0
    5.0939   47.4252   54.9628 H   0  0  0  0  0  0  0  0  0  0  0  0
    3.5481   47.5840   54.0123 H   0  0  0  0  0  0  0  0  0  0  0  0
    0.0960   41.9041   53.9173 H   0  0  0  0  0  0  0  0  0  0  0  0
   -1.9856   42.2802   55.2536 H   0  0  0  0  0  0  0  0  0  0  0  0
  1  2  2  0
  2  3  1  0
  3  4  2  0
  4  5  1  0
  5  6  2  0
  6  7  1  0
  7  8  1  0
  8  9  1  0
  9 10  1  0
 10 11  1  0
 11 12  1  0
 12 13  1  0
 13 14  1  0
 14 15  1  0
 15 16  1  0
 16 17  1  0
 11 18  1  0
 18 19  1  0
  6 20  1  0
 20 21  2  0
 21 22  1  0
 22 23  2  0
 23  1  1  0
 22  4  1  0
 19  8  1  0
 17 12  1  0
  1 24  1  0
  2 25  1  0
  3 26  1  0
  7 27  1  0
  8 28  1  0
  9 29  1  0
  9 30  1  0
 10 31  1  0
 10 32  1  0
 11 33  1  0
 12 34  1  0
 13 35  1  0
 13 36  1  0
 14 37  1  0
 14 38  1  0
 15 39  1  0
 15 40  1  0
 16 41  1  0
 16 42  1  0
 17 43  1  0
 17 44  1  0
 18 45  1  0
 18 46  1  0
 19 47  1  0
 19 48  1  0
 21 49  1  0
 23 50  1  0
M  CHG  1  12   1
M  END
>  <meeko>  (306) 
{"is_sidechain": false}

>  <CID>  (306) 
Z2654643499

>  <pose_index>  (306) 
7

>  <docking_score>  (306) 
-7.93

>  <rmsd_to_best_selected>  (306) 
1.4470088523896576

>  <MWT>  (306) 
311.4529999999995

>  <TPSA>  (306) 
42.25

>  <logP>  (306) 
2.4216999999999995

>  <HBD>  (306) 
2

>  <HBA>  (306) 
3

>  <SMILES>  (306) 
[H]c1c([H])c([H])c2c([H])nc(N([H])C3([H])C([H])([H])C([H])([H])C([H])([N+]4([H])C([H])([H])C([H])([H])C([H])([H])C([H])([H])C4([H])[H])C([H])([H])C3([H])[H])nc2c1[H]

$$$$
Z2654643499_pose9
     RDKit          3D

 50 53  0  0  0  0  0  0  0  0999 V2000
   -2.4127   44.8745   55.8117 C   0  0  0  0  0  0  0  0  0  0  0  0
   -1.6000   44.9522   56.9371 C   0  0  0  0  0  0  0  0  0  0  0  0
   -0.2127   44.8191   56.8088 C   0  0  0  0  0  0  0  0  0  0  0  0
    0.3899   44.6104   55.5743 C   0  0  0  0  0  0  0  0  0  0  0  0
    1.7247   44.4872   55.4892 N   0  0  0  0  0  0  0  0  0  0  0  0
    2.2623   44.2954   54.2793 C   0  0  0  0  0  0  0  0  0  0  0  0
    3.6518   44.1821   54.2743 N   0  0  0  0  0  0  0  0  0  0  0  0
    4.3761   45.2467   54.9543 C   0  0  0  0  0  0  0  0  0  0  0  0
    5.8440   44.8439   55.1800 C   0  0  0  0  0  0  0  0  0  0  0  0
    6.5984   44.6431   53.8627 C   0  0  0  0  0  0  0  0  0  0  0  0
    6.5749   45.8843   52.9579 C   0  0  0  0  0  0  0  0  0  0  0  0
    7.4129   47.0508   53.5294 N   0  0  0  0  0  4  0  0  0  0  0  0
    8.7922   46.7008   54.0510 C   0  0  0  0  0  0  0  0  0  0  0  0
    9.7181   46.3005   52.9115 C   0  0  0  0  0  0  0  0  0  0  0  0
    9.6071   47.2235   51.7001 C   0  0  0  0  0  0  0  0  0  0  0  0
    8.8822   48.5161   52.0470 C   0  0  0  0  0  0  0  0  0  0  0  0
    7.4760   48.2533   52.5787 C   0  0  0  0  0  0  0  0  0  0  0  0
    5.1130   46.3424   52.7600 C   0  0  0  0  0  0  0  0  0  0  0  0
    4.3313   46.5060   54.0696 C   0  0  0  0  0  0  0  0  0  0  0  0
    1.5618   44.1983   53.1463 N   0  0  0  0  0  0  0  0  0  0  0  0
    0.2246   44.3238   53.2557 C   0  0  0  0  0  0  0  0  0  0  0  0
   -0.4364   44.5352   54.4523 C   0  0  0  0  0  0  0  0  0  0  0  0
   -1.8356   44.6661   54.5630 C   0  0  0  0  0  0  0  0  0  0  0  0
   -3.5037   44.9769   55.9079 H   0  0  0  0  0  0  0  0  0  0  0  0
   -2.0473   45.1183   57.9282 H   0  0  0  0  0  0  0  0  0  0  0  0
    0.4170   44.8814   57.7086 H   0  0  0  0  0  0  0  0  0  0  0  0
    3.8514   44.0625   53.2818 H   0  0  0  0  0  0  0  0  0  0  0  0
    3.9092   45.4378   55.9318 H   0  0  0  0  0  0  0  0  0  0  0  0
    6.3437   45.6357   55.7572 H   0  0  0  0  0  0  0  0  0  0  0  0
    5.8517   43.8870   55.7225 H   0  0  0  0  0  0  0  0  0  0  0  0
    7.6457   44.3981   54.0933 H   0  0  0  0  0  0  0  0  0  0  0  0
    6.0950   43.8311   53.3176 H   0  0  0  0  0  0  0  0  0  0  0  0
    7.0258   45.6023   51.9949 H   0  0  0  0  0  0  0  0  0  0  0  0
    6.9063   47.3821   54.3575 H   0  0  0  0  0  0  0  0  0  0  0  0
    9.2144   47.5753   54.5679 H   0  0  0  0  0  0  0  0  0  0  0  0
    8.7009   45.8519   54.7445 H   0  0  0  0  0  0  0  0  0  0  0  0
   10.7552   46.3255   53.2773 H   0  0  0  0  0  0  0  0  0  0  0  0
    9.4218   45.2926   52.5854 H   0  0  0  0  0  0  0  0  0  0  0  0
   10.6185   47.4661   51.3420 H   0  0  0  0  0  0  0  0  0  0  0  0
    9.0300   46.7028   50.9218 H   0  0  0  0  0  0  0  0  0  0  0  0
    9.4587   49.0522   52.8153 H   0  0  0  0  0  0  0  0  0  0  0  0
    8.7936   49.1150   51.1286 H   0  0  0  0  0  0  0  0  0  0  0  0
    7.1325   49.1472   53.1201 H   0  0  0  0  0  0  0  0  0  0  0  0
    6.8334   48.0260   51.7154 H   0  0  0  0  0  0  0  0  0  0  0  0
    5.1209   47.3106   52.2379 H   0  0  0  0  0  0  0  0  0  0  0  0
    4.6068   45.5554   52.1817 H   0  0  0  0  0  0  0  0  0  0  0  0
    4.7624   47.3466   54.6332 H   0  0  0  0  0  0  0  0  0  0  0  0
    3.2789   46.6874   53.8059 H   0  0  0  0  0  0  0  0  0  0  0  0
   -0.3778   44.2539   52.3380 H   0  0  0  0  0  0  0  0  0  0  0  0
   -2.4687   44.6038   53.6656 H   0  0  0  0  0  0  0  0  0  0  0  0
  1  2  2  0
  2  3  1  0
  3  4  2  0
  4  5  1  0
  5  6  2  0
  6  7  1  0
  7  8  1  0
  8  9  1  0
  9 10  1  0
 10 11  1  0
 11 12  1  0
 12 13  1  0
 13 14  1  0
 14 15  1  0
 15 16  1  0
 16 17  1  0
 11 18  1  0
 18 19  1  0
  6 20  1  0
 20 21  2  0
 21 22  1  0
 22 23  2  0
 23  1  1  0
 22  4  1  0
 19  8  1  0
 17 12  1  0
  1 24  1  0
  2 25  1  0
  3 26  1  0
  7 27  1  0
  8 28  1  0
  9 29  1  0
  9 30  1  0
 10 31  1  0
 10 32  1  0
 11 33  1  0
 12 34  1  0
 13 35  1  0
 13 36  1  0
 14 37  1  0
 14 38  1  0
 15 39  1  0
 15 40  1  0
 16 41  1  0
 16 42  1  0
 17 43  1  0
 17 44  1  0
 18 45  1  0
 18 46  1  0
 19 47  1  0
 19 48  1  0
 21 49  1  0
 23 50  1  0
M  CHG  1  12   1
M  END
>  <meeko>  (307) 
{"is_sidechain": false}

>  <CID>  (307) 
Z2654643499

>  <pose_index>  (307) 
9

>  <docking_score>  (307) 
-7.703

>  <rmsd_to_best_selected>  (307) 
0.9225012737737256

>  <MWT>  (307) 
311.4529999999995

>  <TPSA>  (307) 
42.25

>  <logP>  (307) 
2.4216999999999995

>  <HBD>  (307) 
2

>  <HBA>  (307) 
3

>  <SMILES>  (307) 
[H]c1c([H])c([H])c2c([H])nc(N([H])C3([H])C([H])([H])C([H])([H])C([H])([N+]4([H])C([H])([H])C([H])([H])C([H])([H])C([H])([H])C4([H])[H])C([H])([H])C3([H])[H])nc2c1[H]

$$$$
Z2654643499_pose10
     RDKit          3D

 50 53  0  0  0  0  0  0  0  0999 V2000
   -2.2872   45.5094   54.9485 C   0  0  0  0  0  0  0  0  0  0  0  0
   -1.5969   46.3803   54.1122 C   0  0  0  0  0  0  0  0  0  0  0  0
   -0.2313   46.1882   53.8771 C   0  0  0  0  0  0  0  0  0  0  0  0
    0.4720   45.1410   54.4605 C   0  0  0  0  0  0  0  0  0  0  0  0
    1.7821   44.9887   54.2132 N   0  0  0  0  0  0  0  0  0  0  0  0
    2.4168   43.9622   54.7895 C   0  0  0  0  0  0  0  0  0  0  0  0
    3.7721   43.8698   54.4785 N   0  0  0  0  0  0  0  0  0  0  0  0
    4.6577   44.7377   55.2416 C   0  0  0  0  0  0  0  0  0  0  0  0
    6.1096   44.2350   55.1604 C   0  0  0  0  0  0  0  0  0  0  0  0
    6.6600   44.2816   53.7329 C   0  0  0  0  0  0  0  0  0  0  0  0
    6.6028   45.6834   53.1081 C   0  0  0  0  0  0  0  0  0  0  0  0
    7.5926   46.6695   53.7703 N   0  0  0  0  0  4  0  0  0  0  0  0
    9.0653   46.4224   53.5126 C   0  0  0  0  0  0  0  0  0  0  0  0
    9.4163   46.6993   52.0580 C   0  0  0  0  0  0  0  0  0  0  0  0
    8.7867   47.9845   51.5269 C   0  0  0  0  0  0  0  0  0  0  0  0
    8.2687   48.8623   52.6570 C   0  0  0  0  0  0  0  0  0  0  0  0
    7.2294   48.1356   53.5076 C   0  0  0  0  0  0  0  0  0  0  0  0
    5.1637   46.2341   53.2257 C   0  0  0  0  0  0  0  0  0  0  0  0
    4.5831   46.1549   54.6431 C   0  0  0  0  0  0  0  0  0  0  0  0
    1.8396   43.0819   55.6134 N   0  0  0  0  0  0  0  0  0  0  0  0
    0.5236   43.2543   55.8484 C   0  0  0  0  0  0  0  0  0  0  0  0
   -0.2318   44.2737   55.2983 C   0  0  0  0  0  0  0  0  0  0  0  0
   -1.6084   44.4512   55.5466 C   0  0  0  0  0  0  0  0  0  0  0  0
   -3.3612   45.6555   55.1358 H   0  0  0  0  0  0  0  0  0  0  0  0
   -2.1245   47.2198   53.6359 H   0  0  0  0  0  0  0  0  0  0  0  0
    0.3003   46.8850   53.2124 H   0  0  0  0  0  0  0  0  0  0  0  0
    3.7670   44.0059   53.4682 H   0  0  0  0  0  0  0  0  0  0  0  0
    4.3443   44.7407   56.2960 H   0  0  0  0  0  0  0  0  0  0  0  0
    6.7395   44.8671   55.8035 H   0  0  0  0  0  0  0  0  0  0  0  0
    6.1223   43.1865   55.4926 H   0  0  0  0  0  0  0  0  0  0  0  0
    7.7085   43.9496   53.7515 H   0  0  0  0  0  0  0  0  0  0  0  0
    6.0291   43.6234   53.1176 H   0  0  0  0  0  0  0  0  0  0  0  0
    6.8969   45.5890   52.0524 H   0  0  0  0  0  0  0  0  0  0  0  0
    7.4874   46.5359   54.7823 H   0  0  0  0  0  0  0  0  0  0  0  0
    9.6600   47.0848   54.1588 H   0  0  0  0  0  0  0  0  0  0  0  0
    9.2885   45.3682   53.7333 H   0  0  0  0  0  0  0  0  0  0  0  0
   10.5097   46.7825   51.9709 H   0  0  0  0  0  0  0  0  0  0  0  0
    9.0191   45.8663   51.4593 H   0  0  0  0  0  0  0  0  0  0  0  0
    9.5436   48.5444   50.9580 H   0  0  0  0  0  0  0  0  0  0  0  0
    7.9359   47.7116   50.8853 H   0  0  0  0  0  0  0  0  0  0  0  0
    9.1139   49.1527   53.2984 H   0  0  0  0  0  0  0  0  0  0  0  0
    7.7890   49.7462   52.2115 H   0  0  0  0  0  0  0  0  0  0  0  0
    7.1420   48.6541   54.4738 H   0  0  0  0  0  0  0  0  0  0  0  0
    6.2811   48.1459   52.9502 H   0  0  0  0  0  0  0  0  0  0  0  0
    5.1695   47.2884   52.9120 H   0  0  0  0  0  0  0  0  0  0  0  0
    4.5277   45.6066   52.5841 H   0  0  0  0  0  0  0  0  0  0  0  0
    5.1471   46.8405   55.2925 H   0  0  0  0  0  0  0  0  0  0  0  0
    3.5204   46.4321   54.5810 H   0  0  0  0  0  0  0  0  0  0  0  0
    0.0202   42.5413   56.5179 H   0  0  0  0  0  0  0  0  0  0  0  0
   -2.1438   43.7564   56.2103 H   0  0  0  0  0  0  0  0  0  0  0  0
  1  2  2  0
  2  3  1  0
  3  4  2  0
  4  5  1  0
  5  6  2  0
  6  7  1  0
  7  8  1  0
  8  9  1  0
  9 10  1  0
 10 11  1  0
 11 12  1  0
 12 13  1  0
 13 14  1  0
 14 15  1  0
 15 16  1  0
 16 17  1  0
 11 18  1  0
 18 19  1  0
  6 20  1  0
 20 21  2  0
 21 22  1  0
 22 23  2  0
 23  1  1  0
 22  4  1  0
 19  8  1  0
 17 12  1  0
  1 24  1  0
  2 25  1  0
  3 26  1  0
  7 27  1  0
  8 28  1  0
  9 29  1  0
  9 30  1  0
 10 31  1  0
 10 32  1  0
 11 33  1  0
 12 34  1  0
 13 35  1  0
 13 36  1  0
 14 37  1  0
 14 38  1  0
 15 39  1  0
 15 40  1  0
 16 41  1  0
 16 42  1  0
 17 43  1  0
 17 44  1  0
 18 45  1  0
 18 46  1  0
 19 47  1  0
 19 48  1  0
 21 49  1  0
 23 50  1  0
M  CHG  1  12   1
M  END
>  <meeko>  (308) 
{"is_sidechain": false}

>  <CID>  (308) 
Z2654643499

>  <pose_index>  (308) 
10

>  <docking_score>  (308) 
-7.654

>  <rmsd_to_best_selected>  (308) 
1.9337933214161926

>  <MWT>  (308) 
311.4529999999995

>  <TPSA>  (308) 
42.25

>  <logP>  (308) 
2.4216999999999995

>  <HBD>  (308) 
2

>  <HBA>  (308) 
3

>  <SMILES>  (308) 
[H]c1c([H])c([H])c2c([H])nc(N([H])C3([H])C([H])([H])C([H])([H])C([H])([N+]4([H])C([H])([H])C([H])([H])C([H])([H])C([H])([H])C4([H])[H])C([H])([H])C3([H])[H])nc2c1[H]

$$$$
Z2684222059_pose7
     RDKit          3D

 46 48  0  0  0  0  0  0  0  0999 V2000
    1.7096   43.8730   50.5512 N   0  0  0  0  0  4  0  0  0  0  0  0
    0.8327   44.1485   51.7181 C   0  0  0  0  0  0  0  0  0  0  0  0
    1.5471   45.0380   52.7794 C   0  0  0  0  0  0  0  0  0  0  0  0
    2.9664   45.3164   52.5060 N   0  0  0  0  0  0  0  0  0  0  0  0
    4.0128   44.4471   52.6988 C   0  0  0  0  0  0  0  0  0  0  0  0
    3.9043   43.2292   52.6625 O   0  0  0  0  0  0  0  0  0  0  0  0
    5.3752   45.1207   52.8520 C   0  0  0  0  0  0  0  0  0  0  0  0
    5.4782   46.1735   53.5982 N   0  0  0  0  0  0  0  0  0  0  0  0
    6.7587   46.7583   53.6878 C   0  0  0  0  0  0  0  0  0  0  0  0
    6.9248   47.9029   54.4738 C   0  0  0  0  0  0  0  0  0  0  0  0
    8.1769   48.5174   54.5789 C   0  0  0  0  0  0  0  0  0  0  0  0
    9.2768   47.9923   53.9005 C   0  0  0  0  0  0  0  0  0  0  0  0
    9.1288   46.8524   53.1118 C   0  0  0  0  0  0  0  0  0  0  0  0
    7.8713   46.2497   53.0091 C   0  0  0  0  0  0  0  0  0  0  0  0
    7.6710   45.0586   52.1648 C   0  0  0  0  0  0  0  0  0  0  0  0
    8.5665   44.5711   51.4869 O   0  0  0  0  0  0  0  0  0  0  0  0
    6.4021   44.5442   52.1616 N   0  0  0  0  0  0  0  0  0  0  0  0
    1.3645   44.4601   54.2214 C   0  0  0  0  0  0  0  0  0  0  0  0
   -0.1106   44.3160   54.6489 C   0  0  0  0  0  0  0  0  0  0  0  0
   -0.7949   45.6706   54.8352 C   0  0  0  0  0  0  0  0  0  0  0  0
   -0.0480   46.5417   55.8435 C   0  0  0  0  0  0  0  0  0  0  0  0
    1.4412   46.6609   55.5279 C   0  0  0  0  0  0  0  0  0  0  0  0
    2.0885   45.2981   55.3019 C   0  0  0  0  0  0  0  0  0  0  0  0
    2.0143   42.8940   50.5046 H   0  0  0  0  0  0  0  0  0  0  0  0
    2.5305   44.4838   50.5190 H   0  0  0  0  0  0  0  0  0  0  0  0
    1.1544   44.0611   49.6949 H   0  0  0  0  0  0  0  0  0  0  0  0
   -0.0722   44.6674   51.3692 H   0  0  0  0  0  0  0  0  0  0  0  0
    0.5793   43.1880   52.1906 H   0  0  0  0  0  0  0  0  0  0  0  0
    1.0423   46.0127   52.7081 H   0  0  0  0  0  0  0  0  0  0  0  0
    3.2627   46.2983   52.5336 H   0  0  0  0  0  0  0  0  0  0  0  0
    6.0637   48.3235   55.0138 H   0  0  0  0  0  0  0  0  0  0  0  0
    8.2947   49.4183   55.1990 H   0  0  0  0  0  0  0  0  0  0  0  0
   10.2603   48.4773   53.9878 H   0  0  0  0  0  0  0  0  0  0  0  0
    9.9923   46.4314   52.5760 H   0  0  0  0  0  0  0  0  0  0  0  0
    6.2530   43.7146   51.6024 H   0  0  0  0  0  0  0  0  0  0  0  0
    1.8188   43.4605   54.1559 H   0  0  0  0  0  0  0  0  0  0  0  0
   -0.6498   43.7506   53.8746 H   0  0  0  0  0  0  0  0  0  0  0  0
   -0.1314   43.7923   55.6160 H   0  0  0  0  0  0  0  0  0  0  0  0
   -0.8260   46.1914   53.8669 H   0  0  0  0  0  0  0  0  0  0  0  0
   -1.8109   45.4939   55.2180 H   0  0  0  0  0  0  0  0  0  0  0  0
   -0.4913   47.5484   55.8357 H   0  0  0  0  0  0  0  0  0  0  0  0
   -0.1420   46.0643   56.8301 H   0  0  0  0  0  0  0  0  0  0  0  0
    1.5640   47.2675   54.6186 H   0  0  0  0  0  0  0  0  0  0  0  0
    1.9346   47.1324   56.3906 H   0  0  0  0  0  0  0  0  0  0  0  0
    3.1309   45.4525   54.9864 H   0  0  0  0  0  0  0  0  0  0  0  0
    2.0258   44.7415   56.2486 H   0  0  0  0  0  0  0  0  0  0  0  0
  1  2  1  0
  2  3  1  0
  3  4  1  0
  4  5  1  0
  5  6  2  0
  5  7  1  0
  7  8  2  0
  8  9  1  0
  9 10  2  0
 10 11  1  0
 11 12  2  0
 12 13  1  0
 13 14  2  0
 14 15  1  0
 15 16  2  0
 15 17  1  0
  3 18  1  0
 18 19  1  0
 19 20  1  0
 20 21  1  0
 21 22  1  0
 22 23  1  0
 17  7  1  0
 23 18  1  0
 14  9  1  0
  1 24  1  0
  1 25  1  0
  1 26  1  0
  2 27  1  0
  2 28  1  0
  3 29  1  0
  4 30  1  0
 10 31  1  0
 11 32  1  0
 12 33  1  0
 13 34  1  0
 17 35  1  0
 18 36  1  0
 19 37  1  0
 19 38  1  0
 20 39  1  0
 20 40  1  0
 21 41  1  0
 21 42  1  0
 22 43  1  0
 22 44  1  0
 23 45  1  0
 23 46  1  0
M  CHG  1   1   1
M  END
>  <meeko>  (309) 
{"is_sidechain": false}

>  <CID>  (309) 
Z2684222059

>  <pose_index>  (309) 
7

>  <docking_score>  (309) 
-7.809

>  <rmsd_to_best_selected>  (309) 
1.4232461976951336

>  <MWT>  (309) 
315.3969999999996

>  <TPSA>  (309) 
102.48999999999998

>  <logP>  (309) 
0.8436999999999997

>  <HBD>  (309) 
3

>  <HBA>  (309) 
3

>  <SMILES>  (309) 
[H]c1c([H])c([H])c2c(=O)n([H])c(C(=O)N([H])C([H])(C3([H])C([H])([H])C([H])([H])C([H])([H])C([H])([H])C3([H])[H])C([H])([H])[N+]([H])([H])[H])nc2c1[H]

$$$$
Z2684222059_pose1
     RDKit          3D

 46 48  0  0  0  0  0  0  0  0999 V2000
    1.9470   44.3350   51.1910 N   0  0  0  0  0  4  0  0  0  0  0  0
    1.1190   45.3040   51.9540 C   0  0  0  0  0  0  0  0  0  0  0  0
    1.6590   45.5140   53.4000 C   0  0  0  0  0  0  0  0  0  0  0  0
    3.0940   45.8310   53.4890 N   0  0  0  0  0  0  0  0  0  0  0  0
    3.7170   46.9210   52.9300 C   0  0  0  0  0  0  0  0  0  0  0  0
    3.1580   47.9850   52.7050 O   0  0  0  0  0  0  0  0  0  0  0  0
    5.2180   46.7480   52.7090 C   0  0  0  0  0  0  0  0  0  0  0  0
    6.0440   47.2210   53.5870 N   0  0  0  0  0  0  0  0  0  0  0  0
    7.4180   47.0420   53.3200 C   0  0  0  0  0  0  0  0  0  0  0  0
    8.3530   47.5410   54.2310 C   0  0  0  0  0  0  0  0  0  0  0  0
    9.7230   47.3930   53.9950 C   0  0  0  0  0  0  0  0  0  0  0  0
   10.1730   46.7420   52.8460 C   0  0  0  0  0  0  0  0  0  0  0  0
    9.2540   46.2390   51.9270 C   0  0  0  0  0  0  0  0  0  0  0  0
    7.8860   46.3980   52.1700 C   0  0  0  0  0  0  0  0  0  0  0  0
    6.8850   45.9020   51.2080 C   0  0  0  0  0  0  0  0  0  0  0  0
    7.1940   45.3750   50.1460 O   0  0  0  0  0  0  0  0  0  0  0  0
    5.5770   46.0960   51.5650 N   0  0  0  0  0  0  0  0  0  0  0  0
    1.3010   44.3040   54.3230 C   0  0  0  0  0  0  0  0  0  0  0  0
   -0.1790   43.8750   54.2370 C   0  0  0  0  0  0  0  0  0  0  0  0
   -1.1210   44.9240   54.8260 C   0  0  0  0  0  0  0  0  0  0  0  0
   -0.7620   45.2500   56.2750 C   0  0  0  0  0  0  0  0  0  0  0  0
    0.7130   45.6040   56.4490 C   0  0  0  0  0  0  0  0  0  0  0  0
    1.6300   44.5640   55.8120 C   0  0  0  0  0  0  0  0  0  0  0  0
    2.9310   44.3340   51.4850 H   0  0  0  0  0  0  0  0  0  0  0  0
    1.8970   44.4810   50.1790 H   0  0  0  0  0  0  0  0  0  0  0  0
    1.5710   43.3870   51.3830 H   0  0  0  0  0  0  0  0  0  0  0  0
    1.1257   46.2699   51.4277 H   0  0  0  0  0  0  0  0  0  0  0  0
    0.0985   44.8997   52.0256 H   0  0  0  0  0  0  0  0  0  0  0  0
    1.1407   46.4148   53.7604 H   0  0  0  0  0  0  0  0  0  0  0  0
    3.7380   45.0460   53.6380 H   0  0  0  0  0  0  0  0  0  0  0  0
    8.0083   48.0542   55.1408 H   0  0  0  0  0  0  0  0  0  0  0  0
   10.4494   47.7916   54.7185 H   0  0  0  0  0  0  0  0  0  0  0  0
   11.2519   46.6259   52.6657 H   0  0  0  0  0  0  0  0  0  0  0  0
    9.6010   45.7223   51.0200 H   0  0  0  0  0  0  0  0  0  0  0  0
    4.8780   45.7430   50.9250 H   0  0  0  0  0  0  0  0  0  0  0  0
    1.9338   43.4917   53.9359 H   0  0  0  0  0  0  0  0  0  0  0  0
   -0.4410   43.7175   53.1803 H   0  0  0  0  0  0  0  0  0  0  0  0
   -0.2964   42.9506   54.8216 H   0  0  0  0  0  0  0  0  0  0  0  0
   -1.0524   45.8431   54.2255 H   0  0  0  0  0  0  0  0  0  0  0  0
   -2.1434   44.5186   54.8071 H   0  0  0  0  0  0  0  0  0  0  0  0
   -1.3708   46.1047   56.6051 H   0  0  0  0  0  0  0  0  0  0  0  0
   -0.9626   44.3522   56.8780 H   0  0  0  0  0  0  0  0  0  0  0  0
    0.9019   46.5799   55.9780 H   0  0  0  0  0  0  0  0  0  0  0  0
    0.9302   45.6335   57.5269 H   0  0  0  0  0  0  0  0  0  0  0  0
    2.6684   44.9195   55.8853 H   0  0  0  0  0  0  0  0  0  0  0  0
    1.4826   43.6177   56.3531 H   0  0  0  0  0  0  0  0  0  0  0  0
  1  2  1  0
  2  3  1  0
  3  4  1  0
  4  5  1  0
  5  6  2  0
  5  7  1  0
  7  8  2  0
  8  9  1  0
  9 10  2  0
 10 11  1  0
 11 12  2  0
 12 13  1  0
 13 14  2  0
 14 15  1  0
 15 16  2  0
 15 17  1  0
  3 18  1  0
 18 19  1  0
 19 20  1  0
 20 21  1  0
 21 22  1  0
 22 23  1  0
 17  7  1  0
 23 18  1  0
 14  9  1  0
  1 24  1  0
  1 25  1  0
  1 26  1  0
  2 27  1  0
  2 28  1  0
  3 29  1  0
  4 30  1  0
 10 31  1  0
 11 32  1  0
 12 33  1  0
 13 34  1  0
 17 35  1  0
 18 36  1  0
 19 37  1  0
 19 38  1  0
 20 39  1  0
 20 40  1  0
 21 41  1  0
 21 42  1  0
 22 43  1  0
 22 44  1  0
 23 45  1  0
 23 46  1  0
M  CHG  1   1   1
M  END
>  <meeko>  (310) 
{"is_sidechain": false}

>  <CID>  (310) 
Z2684222059

>  <pose_index>  (310) 
1

>  <docking_score>  (310) 
-8.704

>  <rmsd_to_best_selected>  (310) 
0.0

>  <MWT>  (310) 
315.3969999999996

>  <TPSA>  (310) 
102.48999999999998

>  <logP>  (310) 
0.8436999999999997

>  <HBD>  (310) 
3

>  <HBA>  (310) 
3

>  <SMILES>  (310) 
[H]c1c([H])c([H])c2c(=O)n([H])c(C(=O)N([H])C([H])(C3([H])C([H])([H])C([H])([H])C([H])([H])C([H])([H])C3([H])[H])C([H])([H])[N+]([H])([H])[H])nc2c1[H]

$$$$
Z2684222059_pose2
     RDKit          3D

 46 48  0  0  0  0  0  0  0  0999 V2000
    2.0012   44.8363   50.7641 N   0  0  0  0  0  4  0  0  0  0  0  0
    1.2780   44.2390   51.9161 C   0  0  0  0  0  0  0  0  0  0  0  0
    1.6949   44.8992   53.2651 C   0  0  0  0  0  0  0  0  0  0  0  0
    3.1319   45.1914   53.3974 N   0  0  0  0  0  0  0  0  0  0  0  0
    3.6987   46.4415   53.4682 C   0  0  0  0  0  0  0  0  0  0  0  0
    3.1203   47.4292   53.8980 O   0  0  0  0  0  0  0  0  0  0  0  0
    5.1722   46.4915   53.0706 C   0  0  0  0  0  0  0  0  0  0  0  0
    6.0584   46.7865   53.9674 N   0  0  0  0  0  0  0  0  0  0  0  0
    7.4008   46.8312   53.5366 C   0  0  0  0  0  0  0  0  0  0  0  0
    8.3961   47.1526   54.4621 C   0  0  0  0  0  0  0  0  0  0  0  0
    9.7372   47.2176   54.0694 C   0  0  0  0  0  0  0  0  0  0  0  0
   10.0960   46.9586   52.7470 C   0  0  0  0  0  0  0  0  0  0  0  0
    9.1149   46.6372   51.8102 C   0  0  0  0  0  0  0  0  0  0  0  0
    7.7775   46.5812   52.2115 C   0  0  0  0  0  0  0  0  0  0  0  0
    6.7094   46.2699   51.2440 C   0  0  0  0  0  0  0  0  0  0  0  0
    6.9299   46.0917   50.0524 O   0  0  0  0  0  0  0  0  0  0  0  0
    5.4422   46.2218   51.7601 N   0  0  0  0  0  0  0  0  0  0  0  0
    1.1841   44.0673   54.4872 C   0  0  0  0  0  0  0  0  0  0  0  0
   -0.3480   43.8914   54.5198 C   0  0  0  0  0  0  0  0  0  0  0  0
   -1.0769   45.2068   54.7920 C   0  0  0  0  0  0  0  0  0  0  0  0
   -0.6038   45.8503   56.0936 C   0  0  0  0  0  0  0  0  0  0  0  0
    0.9160   45.9817   56.1669 C   0  0  0  0  0  0  0  0  0  0  0  0
    1.6186   44.6658   55.8462 C   0  0  0  0  0  0  0  0  0  0  0  0
    2.6399   44.1747   50.3091 H   0  0  0  0  0  0  0  0  0  0  0  0
    2.5164   45.6850   51.0173 H   0  0  0  0  0  0  0  0  0  0  0  0
    1.2900   45.1087   50.0589 H   0  0  0  0  0  0  0  0  0  0  0  0
    0.1969   44.3796   51.7698 H   0  0  0  0  0  0  0  0  0  0  0  0
    1.5342   43.1703   51.9644 H   0  0  0  0  0  0  0  0  0  0  0  0
    1.1993   45.8812   53.2579 H   0  0  0  0  0  0  0  0  0  0  0  0
    3.7868   44.4842   53.0468 H   0  0  0  0  0  0  0  0  0  0  0  0
    8.1234   47.3562   55.5081 H   0  0  0  0  0  0  0  0  0  0  0  0
   10.5119   47.4742   54.8069 H   0  0  0  0  0  0  0  0  0  0  0  0
   11.1522   47.0079   52.4433 H   0  0  0  0  0  0  0  0  0  0  0  0
    9.3907   46.4298   50.7657 H   0  0  0  0  0  0  0  0  0  0  0  0
    4.7003   45.9889   51.1135 H   0  0  0  0  0  0  0  0  0  0  0  0
    1.6556   43.0840   54.3428 H   0  0  0  0  0  0  0  0  0  0  0  0
   -0.6797   43.4977   53.5477 H   0  0  0  0  0  0  0  0  0  0  0  0
   -0.5898   43.1970   55.3379 H   0  0  0  0  0  0  0  0  0  0  0  0
   -0.8850   45.9005   53.9601 H   0  0  0  0  0  0  0  0  0  0  0  0
   -2.1520   44.9929   54.8838 H   0  0  0  0  0  0  0  0  0  0  0  0
   -1.0481   46.8535   56.1721 H   0  0  0  0  0  0  0  0  0  0  0  0
   -0.9216   45.1991   56.9212 H   0  0  0  0  0  0  0  0  0  0  0  0
    1.2420   46.7440   55.4439 H   0  0  0  0  0  0  0  0  0  0  0  0
    1.1835   46.2685   57.1946 H   0  0  0  0  0  0  0  0  0  0  0  0
    2.7037   44.8445   55.8202 H   0  0  0  0  0  0  0  0  0  0  0  0
    1.3413   43.9441   56.6287 H   0  0  0  0  0  0  0  0  0  0  0  0
  1  2  1  0
  2  3  1  0
  3  4  1  0
  4  5  1  0
  5  6  2  0
  5  7  1  0
  7  8  2  0
  8  9  1  0
  9 10  2  0
 10 11  1  0
 11 12  2  0
 12 13  1  0
 13 14  2  0
 14 15  1  0
 15 16  2  0
 15 17  1  0
  3 18  1  0
 18 19  1  0
 19 20  1  0
 20 21  1  0
 21 22  1  0
 22 23  1  0
 17  7  1  0
 23 18  1  0
 14  9  1  0
  1 24  1  0
  1 25  1  0
  1 26  1  0
  2 27  1  0
  2 28  1  0
  3 29  1  0
  4 30  1  0
 10 31  1  0
 11 32  1  0
 12 33  1  0
 13 34  1  0
 17 35  1  0
 18 36  1  0
 19 37  1  0
 19 38  1  0
 20 39  1  0
 20 40  1  0
 21 41  1  0
 21 42  1  0
 22 43  1  0
 22 44  1  0
 23 45  1  0
 23 46  1  0
M  CHG  1   1   1
M  END
>  <meeko>  (311) 
{"is_sidechain": false}

>  <CID>  (311) 
Z2684222059

>  <pose_index>  (311) 
2

>  <docking_score>  (311) 
-8.632

>  <rmsd_to_best_selected>  (311) 
0.8109647861012206

>  <MWT>  (311) 
315.3969999999996

>  <TPSA>  (311) 
102.48999999999998

>  <logP>  (311) 
0.8436999999999997

>  <HBD>  (311) 
3

>  <HBA>  (311) 
3

>  <SMILES>  (311) 
[H]c1c([H])c([H])c2c(=O)n([H])c(C(=O)N([H])C([H])(C3([H])C([H])([H])C([H])([H])C([H])([H])C([H])([H])C3([H])[H])C([H])([H])[N+]([H])([H])[H])nc2c1[H]

$$$$
Z2684222059_pose4
     RDKit          3D

 46 48  0  0  0  0  0  0  0  0999 V2000
    1.8266   44.0545   51.1970 N   0  0  0  0  0  4  0  0  0  0  0  0
    1.1544   45.2282   51.8106 C   0  0  0  0  0  0  0  0  0  0  0  0
    1.6389   45.4734   53.2723 C   0  0  0  0  0  0  0  0  0  0  0  0
    3.0586   45.8399   53.4042 N   0  0  0  0  0  0  0  0  0  0  0  0
    3.6509   46.9739   52.9024 C   0  0  0  0  0  0  0  0  0  0  0  0
    3.0566   48.0247   52.7079 O   0  0  0  0  0  0  0  0  0  0  0  0
    5.1612   46.8660   52.7068 C   0  0  0  0  0  0  0  0  0  0  0  0
    5.9388   46.9475   53.7393 N   0  0  0  0  0  0  0  0  0  0  0  0
    7.3243   46.8547   53.4931 C   0  0  0  0  0  0  0  0  0  0  0  0
    8.2089   46.9442   54.5711 C   0  0  0  0  0  0  0  0  0  0  0  0
    9.5901   46.8680   54.3656 C   0  0  0  0  0  0  0  0  0  0  0  0
   10.1011   46.6988   53.0789 C   0  0  0  0  0  0  0  0  0  0  0  0
    9.2330   46.6080   51.9927 C   0  0  0  0  0  0  0  0  0  0  0  0
    7.8545   46.6920   52.2089 C   0  0  0  0  0  0  0  0  0  0  0  0
    6.9068   46.6264   51.0811 C   0  0  0  0  0  0  0  0  0  0  0  0
    7.2724   46.5415   49.9159 O   0  0  0  0  0  0  0  0  0  0  0  0
    5.5816   46.6966   51.4197 N   0  0  0  0  0  0  0  0  0  0  0  0
    1.2908   44.2618   54.1981 C   0  0  0  0  0  0  0  0  0  0  0  0
   -0.2097   43.9026   54.2095 C   0  0  0  0  0  0  0  0  0  0  0  0
   -1.0581   44.9804   54.8824 C   0  0  0  0  0  0  0  0  0  0  0  0
   -0.5832   45.2616   56.3066 C   0  0  0  0  0  0  0  0  0  0  0  0
    0.9149   45.5455   56.3813 C   0  0  0  0  0  0  0  0  0  0  0  0
    1.7358   44.4776   55.6635 C   0  0  0  0  0  0  0  0  0  0  0  0
    1.5499   43.1652   51.6291 H   0  0  0  0  0  0  0  0  0  0  0  0
    2.8476   44.1322   51.2099 H   0  0  0  0  0  0  0  0  0  0  0  0
    1.5340   44.0148   50.2028 H   0  0  0  0  0  0  0  0  0  0  0  0
    1.3759   46.1211   51.2074 H   0  0  0  0  0  0  0  0  0  0  0  0
    0.0731   45.0280   51.8375 H   0  0  0  0  0  0  0  0  0  0  0  0
    1.0792   46.3602   53.6046 H   0  0  0  0  0  0  0  0  0  0  0  0
    3.7280   45.0739   53.5349 H   0  0  0  0  0  0  0  0  0  0  0  0
    7.8155   47.0758   55.5899 H   0  0  0  0  0  0  0  0  0  0  0  0
   10.2762   46.9416   55.2222 H   0  0  0  0  0  0  0  0  0  0  0  0
   11.1881   46.6373   52.9218 H   0  0  0  0  0  0  0  0  0  0  0  0
    9.6285   46.4714   50.9754 H   0  0  0  0  0  0  0  0  0  0  0  0
    4.9185   46.6317   50.6592 H   0  0  0  0  0  0  0  0  0  0  0  0
    1.8558   43.4288   53.7543 H   0  0  0  0  0  0  0  0  0  0  0  0
   -0.5521   43.7796   53.1714 H   0  0  0  0  0  0  0  0  0  0  0  0
   -0.3290   42.9724   54.7844 H   0  0  0  0  0  0  0  0  0  0  0  0
   -0.9903   45.9073   54.2938 H   0  0  0  0  0  0  0  0  0  0  0  0
   -2.0966   44.6210   54.9305 H   0  0  0  0  0  0  0  0  0  0  0  0
   -1.1270   46.1362   56.6930 H   0  0  0  0  0  0  0  0  0  0  0  0
   -0.7818   44.3619   56.9074 H   0  0  0  0  0  0  0  0  0  0  0  0
    1.1152   46.5210   55.9142 H   0  0  0  0  0  0  0  0  0  0  0  0
    1.2084   45.5441   57.4414 H   0  0  0  0  0  0  0  0  0  0  0  0
    2.7921   44.7846   55.6681 H   0  0  0  0  0  0  0  0  0  0  0  0
    1.5835   43.5286   56.1983 H   0  0  0  0  0  0  0  0  0  0  0  0
  1  2  1  0
  2  3  1  0
  3  4  1  0
  4  5  1  0
  5  6  2  0
  5  7  1  0
  7  8  2  0
  8  9  1  0
  9 10  2  0
 10 11  1  0
 11 12  2  0
 12 13  1  0
 13 14  2  0
 14 15  1  0
 15 16  2  0
 15 17  1  0
  3 18  1  0
 18 19  1  0
 19 20  1  0
 20 21  1  0
 21 22  1  0
 22 23  1  0
 17  7  1  0
 23 18  1  0
 14  9  1  0
  1 24  1  0
  1 25  1  0
  1 26  1  0
  2 27  1  0
  2 28  1  0
  3 29  1  0
  4 30  1  0
 10 31  1  0
 11 32  1  0
 12 33  1  0
 13 34  1  0
 17 35  1  0
 18 36  1  0
 19 37  1  0
 19 38  1  0
 20 39  1  0
 20 40  1  0
 21 41  1  0
 21 42  1  0
 22 43  1  0
 22 44  1  0
 23 45  1  0
 23 46  1  0
M  CHG  1   1   1
M  END
>  <meeko>  (312) 
{"is_sidechain": false}

>  <CID>  (312) 
Z2684222059

>  <pose_index>  (312) 
4

>  <docking_score>  (312) 
-8.546

>  <rmsd_to_best_selected>  (312) 
0.40571119859310933

>  <MWT>  (312) 
315.3969999999996

>  <TPSA>  (312) 
102.48999999999998

>  <logP>  (312) 
0.8436999999999997

>  <HBD>  (312) 
3

>  <HBA>  (312) 
3

>  <SMILES>  (312) 
[H]c1c([H])c([H])c2c(=O)n([H])c(C(=O)N([H])C([H])(C3([H])C([H])([H])C([H])([H])C([H])([H])C([H])([H])C3([H])[H])C([H])([H])[N+]([H])([H])[H])nc2c1[H]

$$$$
Z2684222059_pose9
     RDKit          3D

 46 48  0  0  0  0  0  0  0  0999 V2000
    0.6139   45.1276   50.5104 N   0  0  0  0  0  4  0  0  0  0  0  0
    0.9148   44.2905   51.7004 C   0  0  0  0  0  0  0  0  0  0  0  0
    1.6499   45.1029   52.8082 C   0  0  0  0  0  0  0  0  0  0  0  0
    3.0431   45.4609   52.4985 N   0  0  0  0  0  0  0  0  0  0  0  0
    4.0996   44.5872   52.4027 C   0  0  0  0  0  0  0  0  0  0  0  0
    3.9862   43.4104   52.0933 O   0  0  0  0  0  0  0  0  0  0  0  0
    5.4716   45.2294   52.6032 C   0  0  0  0  0  0  0  0  0  0  0  0
    5.7405   45.8065   53.7303 N   0  0  0  0  0  0  0  0  0  0  0  0
    7.0174   46.3933   53.8496 C   0  0  0  0  0  0  0  0  0  0  0  0
    7.3571   47.0356   55.0432 C   0  0  0  0  0  0  0  0  0  0  0  0
    8.6096   47.6394   55.1943 C   0  0  0  0  0  0  0  0  0  0  0  0
    9.5367   47.6041   54.1530 C   0  0  0  0  0  0  0  0  0  0  0  0
    9.2138   46.9677   52.9553 C   0  0  0  0  0  0  0  0  0  0  0  0
    7.9576   46.3737   52.8129 C   0  0  0  0  0  0  0  0  0  0  0  0
    7.5711   45.7139   51.5525 C   0  0  0  0  0  0  0  0  0  0  0  0
    8.2999   45.6929   50.5684 O   0  0  0  0  0  0  0  0  0  0  0  0
    6.3239   45.1488   51.5397 N   0  0  0  0  0  0  0  0  0  0  0  0
    1.5573   44.3863   54.1956 C   0  0  0  0  0  0  0  0  0  0  0  0
    0.1190   44.0026   54.5996 C   0  0  0  0  0  0  0  0  0  0  0  0
   -0.7470   45.2269   54.8950 C   0  0  0  0  0  0  0  0  0  0  0  0
   -0.1240   46.1063   55.9777 C   0  0  0  0  0  0  0  0  0  0  0  0
    1.3325   46.4595   55.6827 C   0  0  0  0  0  0  0  0  0  0  0  0
    2.1633   45.2233   55.3464 C   0  0  0  0  0  0  0  0  0  0  0  0
   -0.1463   44.7463   49.9365 H   0  0  0  0  0  0  0  0  0  0  0  0
    1.4363   45.2860   49.9200 H   0  0  0  0  0  0  0  0  0  0  0  0
    0.3010   46.0553   50.8558 H   0  0  0  0  0  0  0  0  0  0  0  0
   -0.0292   43.9023   52.1107 H   0  0  0  0  0  0  0  0  0  0  0  0
    1.5749   43.4698   51.3832 H   0  0  0  0  0  0  0  0  0  0  0  0
    1.1093   46.0599   52.8530 H   0  0  0  0  0  0  0  0  0  0  0  0
    3.3428   46.4147   52.7300 H   0  0  0  0  0  0  0  0  0  0  0  0
    6.6332   47.0667   55.8709 H   0  0  0  0  0  0  0  0  0  0  0  0
    8.8644   48.1440   56.1380 H   0  0  0  0  0  0  0  0  0  0  0  0
   10.5218   48.0779   54.2766 H   0  0  0  0  0  0  0  0  0  0  0  0
    9.9410   46.9338   52.1306 H   0  0  0  0  0  0  0  0  0  0  0  0
    6.0522   44.6748   50.6885 H   0  0  0  0  0  0  0  0  0  0  0  0
    2.1461   43.4685   54.0501 H   0  0  0  0  0  0  0  0  0  0  0  0
   -0.3400   43.4349   53.7768 H   0  0  0  0  0  0  0  0  0  0  0  0
    0.1768   43.4017   55.5192 H   0  0  0  0  0  0  0  0  0  0  0  0
   -0.8562   45.8180   53.9737 H   0  0  0  0  0  0  0  0  0  0  0  0
   -1.7260   44.8780   55.2552 H   0  0  0  0  0  0  0  0  0  0  0  0
   -0.7042   47.0379   56.0518 H   0  0  0  0  0  0  0  0  0  0  0  0
   -0.1446   45.5391   56.9199 H   0  0  0  0  0  0  0  0  0  0  0  0
    1.3641   47.1519   54.8285 H   0  0  0  0  0  0  0  0  0  0  0  0
    1.7599   46.9214   56.5849 H   0  0  0  0  0  0  0  0  0  0  0  0
    3.1720   45.5479   55.0510 H   0  0  0  0  0  0  0  0  0  0  0  0
    2.1848   44.5859   56.2426 H   0  0  0  0  0  0  0  0  0  0  0  0
  1  2  1  0
  2  3  1  0
  3  4  1  0
  4  5  1  0
  5  6  2  0
  5  7  1  0
  7  8  2  0
  8  9  1  0
  9 10  2  0
 10 11  1  0
 11 12  2  0
 12 13  1  0
 13 14  2  0
 14 15  1  0
 15 16  2  0
 15 17  1  0
  3 18  1  0
 18 19  1  0
 19 20  1  0
 20 21  1  0
 21 22  1  0
 22 23  1  0
 17  7  1  0
 23 18  1  0
 14  9  1  0
  1 24  1  0
  1 25  1  0
  1 26  1  0
  2 27  1  0
  2 28  1  0
  3 29  1  0
  4 30  1  0
 10 31  1  0
 11 32  1  0
 12 33  1  0
 13 34  1  0
 17 35  1  0
 18 36  1  0
 19 37  1  0
 19 38  1  0
 20 39  1  0
 20 40  1  0
 21 41  1  0
 21 42  1  0
 22 43  1  0
 22 44  1  0
 23 45  1  0
 23 46  1  0
M  CHG  1   1   1
M  END
>  <meeko>  (313) 
{"is_sidechain": false}

>  <CID>  (313) 
Z2684222059

>  <pose_index>  (313) 
9

>  <docking_score>  (313) 
-7.771

>  <rmsd_to_best_selected>  (313) 
1.5488547952147174

>  <MWT>  (313) 
315.3969999999996

>  <TPSA>  (313) 
102.48999999999998

>  <logP>  (313) 
0.8436999999999997

>  <HBD>  (313) 
3

>  <HBA>  (313) 
3

>  <SMILES>  (313) 
[H]c1c([H])c([H])c2c(=O)n([H])c(C(=O)N([H])C([H])(C3([H])C([H])([H])C([H])([H])C([H])([H])C([H])([H])C3([H])[H])C([H])([H])[N+]([H])([H])[H])nc2c1[H]

$$$$
Z2994634090_pose2
     RDKit          3D

 40 42  0  0  0  0  0  0  0  0999 V2000
    1.3162   44.3686   52.2816 C   0  0  0  0  0  0  0  0  0  0  0  0
    2.3763   43.9400   53.1266 O   0  0  0  0  0  0  0  0  0  0  0  0
    2.6465   44.7142   54.2321 C   0  0  0  0  0  0  0  0  0  0  0  0
    1.7441   44.9807   55.2594 C   0  0  0  0  0  0  0  0  0  0  0  0
    2.1639   45.7795   56.3102 C   0  0  0  0  0  0  0  0  0  0  0  0
    3.3947   46.3193   56.4008 N   0  0  0  0  0  0  0  0  0  0  0  0
    4.2584   46.0484   55.3872 C   0  0  0  0  0  0  0  0  0  0  0  0
    3.9407   45.2596   54.2876 C   0  0  0  0  0  0  0  0  0  0  0  0
    4.8213   44.9656   53.2253 N   0  0  0  0  0  0  0  0  0  0  0  0
    4.8773   45.5742   51.9908 C   0  0  0  0  0  0  0  0  0  0  0  0
    4.1873   46.5118   51.6119 O   0  0  0  0  0  0  0  0  0  0  0  0
    5.9030   45.0169   51.0748 C   0  0  0  0  0  0  0  0  0  0  0  0
    5.6603   43.8272   50.3737 C   0  0  0  0  0  0  0  0  0  0  0  0
    4.2297   42.8803   50.5842 Cl  0  0  0  0  0  0  0  0  0  0  0  0
    6.6295   43.3229   49.4960 C   0  0  0  0  0  0  0  0  0  0  0  0
    7.8416   43.9899   49.3209 C   0  0  0  0  0  0  0  0  0  0  0  0
    8.0904   45.1685   50.0202 C   0  0  0  0  0  0  0  0  0  0  0  0
    7.1174   45.6931   50.8768 C   0  0  0  0  0  0  0  0  0  0  0  0
    7.3894   46.8344   51.5881 O   0  0  0  0  0  0  0  0  0  0  0  0
    8.2215   46.5683   52.7259 C   0  0  0  0  0  0  0  0  0  0  0  0
    9.5949   47.1476   52.5332 C   0  0  0  0  0  0  0  0  0  0  0  0
   10.6738   46.9655   53.5704 C   0  0  0  0  0  0  0  0  0  0  0  0
   10.8013   46.2906   52.2295 C   0  0  0  0  0  0  0  0  0  0  0  0
    0.4544   44.6664   52.8970 H   0  0  0  0  0  0  0  0  0  0  0  0
    1.6509   45.2264   51.6798 H   0  0  0  0  0  0  0  0  0  0  0  0
    1.0231   43.5447   51.6144 H   0  0  0  0  0  0  0  0  0  0  0  0
    0.7249   44.5675   55.2367 H   0  0  0  0  0  0  0  0  0  0  0  0
    1.4486   45.9858   57.1200 H   0  0  0  0  0  0  0  0  0  0  0  0
    5.2693   46.4790   55.4401 H   0  0  0  0  0  0  0  0  0  0  0  0
    5.5413   44.2855   53.4578 H   0  0  0  0  0  0  0  0  0  0  0  0
    6.4327   42.3939   48.9410 H   0  0  0  0  0  0  0  0  0  0  0  0
    8.5989   43.5865   48.6325 H   0  0  0  0  0  0  0  0  0  0  0  0
    9.0529   45.6871   49.8986 H   0  0  0  0  0  0  0  0  0  0  0  0
    7.7635   47.0169   53.6198 H   0  0  0  0  0  0  0  0  0  0  0  0
    8.3134   45.4788   52.8470 H   0  0  0  0  0  0  0  0  0  0  0  0
    9.1146   48.0063   52.0412 H   0  0  0  0  0  0  0  0  0  0  0  0
   11.3357   47.8054   53.8281 H   0  0  0  0  0  0  0  0  0  0  0  0
   10.6965   46.6259   54.6164 H   0  0  0  0  0  0  0  0  0  0  0  0
   11.5555   46.6382   51.5082 H   0  0  0  0  0  0  0  0  0  0  0  0
   10.9550   45.2553   51.8910 H   0  0  0  0  0  0  0  0  0  0  0  0
  1  2  1  0
  2  3  1  0
  3  4  2  0
  4  5  1  0
  5  6  2  0
  6  7  1  0
  7  8  2  0
  8  9  1  0
  9 10  1  0
 10 11  2  0
 10 12  1  0
 12 13  2  0
 13 14  1  0
 13 15  1  0
 15 16  2  0
 16 17  1  0
 17 18  2  0
 18 19  1  0
 19 20  1  0
 20 21  1  0
 21 22  1  0
 22 23  1  0
  8  3  1  0
 18 12  1  0
 23 21  1  0
  1 24  1  0
  1 25  1  0
  1 26  1  0
  4 27  1  0
  5 28  1  0
  7 29  1  0
  9 30  1  0
 15 31  1  0
 16 32  1  0
 17 33  1  0
 20 34  1  0
 20 35  1  0
 21 36  1  0
 22 37  1  0
 22 38  1  0
 23 39  1  0
 23 40  1  0
M  END
>  <meeko>  (314) 
{"is_sidechain": false}

>  <CID>  (314) 
Z2994634090

>  <pose_index>  (314) 
2

>  <docking_score>  (314) 
-8.519

>  <rmsd_to_best_selected>  (314) 
0.0

>  <MWT>  (314) 
332.78699999999975

>  <TPSA>  (314) 
60.45

>  <logP>  (314) 
3.7847000000000017

>  <HBD>  (314) 
1

>  <HBA>  (314) 
4

>  <SMILES>  (314) 
[H]c1nc([H])c(N([H])C(=O)c2c(Cl)c([H])c([H])c([H])c2OC([H])([H])C2([H])C([H])([H])C2([H])[H])c(OC([H])([H])[H])c1[H]

$$$$
Z2994634090_pose4
     RDKit          3D

 40 42  0  0  0  0  0  0  0  0999 V2000
    1.2991   44.6252   53.1480 C   0  0  0  0  0  0  0  0  0  0  0  0
    2.6089   45.1577   52.9912 O   0  0  0  0  0  0  0  0  0  0  0  0
    3.3075   45.4428   54.1440 C   0  0  0  0  0  0  0  0  0  0  0  0
    2.7373   45.5995   55.4049 C   0  0  0  0  0  0  0  0  0  0  0  0
    3.5740   45.8835   56.4726 C   0  0  0  0  0  0  0  0  0  0  0  0
    4.9098   46.0183   56.3661 N   0  0  0  0  0  0  0  0  0  0  0  0
    5.4450   45.8627   55.1283 C   0  0  0  0  0  0  0  0  0  0  0  0
    4.6979   45.5767   53.9915 C   0  0  0  0  0  0  0  0  0  0  0  0
    5.2341   45.4092   52.6962 N   0  0  0  0  0  0  0  0  0  0  0  0
    5.6231   44.2311   52.0962 C   0  0  0  0  0  0  0  0  0  0  0  0
    5.5354   43.1086   52.5768 O   0  0  0  0  0  0  0  0  0  0  0  0
    6.1768   44.3893   50.7285 C   0  0  0  0  0  0  0  0  0  0  0  0
    5.3217   44.5010   49.6236 C   0  0  0  0  0  0  0  0  0  0  0  0
    3.6015   44.3693   49.7403 Cl  0  0  0  0  0  0  0  0  0  0  0  0
    5.8562   44.6695   48.3392 C   0  0  0  0  0  0  0  0  0  0  0  0
    7.2378   44.7152   48.1497 C   0  0  0  0  0  0  0  0  0  0  0  0
    8.0917   44.5978   49.2421 C   0  0  0  0  0  0  0  0  0  0  0  0
    7.5651   44.4580   50.5307 C   0  0  0  0  0  0  0  0  0  0  0  0
    8.4166   44.3053   51.5957 O   0  0  0  0  0  0  0  0  0  0  0  0
    9.0421   45.5440   51.9597 C   0  0  0  0  0  0  0  0  0  0  0  0
    8.5632   46.0100   53.3065 C   0  0  0  0  0  0  0  0  0  0  0  0
    9.5364   46.3977   54.3913 C   0  0  0  0  0  0  0  0  0  0  0  0
    8.6678   47.4489   53.7512 C   0  0  0  0  0  0  0  0  0  0  0  0
    0.5994   45.1767   52.5029 H   0  0  0  0  0  0  0  0  0  0  0  0
    1.2991   43.5623   52.8645 H   0  0  0  0  0  0  0  0  0  0  0  0
    0.9861   44.7246   54.1978 H   0  0  0  0  0  0  0  0  0  0  0  0
    1.6514   45.5004   55.5496 H   0  0  0  0  0  0  0  0  0  0  0  0
    3.1198   46.0062   57.4668 H   0  0  0  0  0  0  0  0  0  0  0  0
    6.5343   45.9691   55.0183 H   0  0  0  0  0  0  0  0  0  0  0  0
    5.2379   46.2567   52.1341 H   0  0  0  0  0  0  0  0  0  0  0  0
    5.1824   44.7663   47.4751 H   0  0  0  0  0  0  0  0  0  0  0  0
    7.6512   44.8438   47.1385 H   0  0  0  0  0  0  0  0  0  0  0  0
    9.1813   44.6150   49.0924 H   0  0  0  0  0  0  0  0  0  0  0  0
   10.1322   45.4008   51.9946 H   0  0  0  0  0  0  0  0  0  0  0  0
    8.7791   46.3048   51.2100 H   0  0  0  0  0  0  0  0  0  0  0  0
    7.7369   45.2900   53.2121 H   0  0  0  0  0  0  0  0  0  0  0  0
    9.3515   46.0904   55.4312 H   0  0  0  0  0  0  0  0  0  0  0  0
   10.6181   46.2721   54.5460 H   0  0  0  0  0  0  0  0  0  0  0  0
    7.8486   47.9086   54.3236 H   0  0  0  0  0  0  0  0  0  0  0  0
    8.8525   48.4079   53.2452 H   0  0  0  0  0  0  0  0  0  0  0  0
  1  2  1  0
  2  3  1  0
  3  4  2  0
  4  5  1  0
  5  6  2  0
  6  7  1  0
  7  8  2  0
  8  9  1  0
  9 10  1  0
 10 11  2  0
 10 12  1  0
 12 13  2  0
 13 14  1  0
 13 15  1  0
 15 16  2  0
 16 17  1  0
 17 18  2  0
 18 19  1  0
 19 20  1  0
 20 21  1  0
 21 22  1  0
 22 23  1  0
  8  3  1  0
 18 12  1  0
 23 21  1  0
  1 24  1  0
  1 25  1  0
  1 26  1  0
  4 27  1  0
  5 28  1  0
  7 29  1  0
  9 30  1  0
 15 31  1  0
 16 32  1  0
 17 33  1  0
 20 34  1  0
 20 35  1  0
 21 36  1  0
 22 37  1  0
 22 38  1  0
 23 39  1  0
 23 40  1  0
M  END
>  <meeko>  (315) 
{"is_sidechain": false}

>  <CID>  (315) 
Z2994634090

>  <pose_index>  (315) 
4

>  <docking_score>  (315) 
-8.131

>  <rmsd_to_best_selected>  (315) 
1.9504156295159194

>  <MWT>  (315) 
332.78699999999975

>  <TPSA>  (315) 
60.45

>  <logP>  (315) 
3.7847000000000017

>  <HBD>  (315) 
1

>  <HBA>  (315) 
4

>  <SMILES>  (315) 
[H]c1nc([H])c(N([H])C(=O)c2c(Cl)c([H])c([H])c([H])c2OC([H])([H])C2([H])C([H])([H])C2([H])[H])c(OC([H])([H])[H])c1[H]

$$$$
Z2994634090_pose6
     RDKit          3D

 40 42  0  0  0  0  0  0  0  0999 V2000
    1.8143   43.4414   53.3680 C   0  0  0  0  0  0  0  0  0  0  0  0
    3.1704   43.8090   53.5881 O   0  0  0  0  0  0  0  0  0  0  0  0
    3.3959   44.9223   54.3674 C   0  0  0  0  0  0  0  0  0  0  0  0
    2.7895   45.1724   55.5963 C   0  0  0  0  0  0  0  0  0  0  0  0
    3.1204   46.3397   56.2651 C   0  0  0  0  0  0  0  0  0  0  0  0
    3.9953   47.2521   55.7983 N   0  0  0  0  0  0  0  0  0  0  0  0
    4.5736   46.9892   54.5990 C   0  0  0  0  0  0  0  0  0  0  0  0
    4.3137   45.8506   53.8453 C   0  0  0  0  0  0  0  0  0  0  0  0
    4.9033   45.5576   52.5970 N   0  0  0  0  0  0  0  0  0  0  0  0
    5.9781   44.7310   52.3533 C   0  0  0  0  0  0  0  0  0  0  0  0
    6.5918   44.0722   53.1838 O   0  0  0  0  0  0  0  0  0  0  0  0
    6.3817   44.6491   50.9277 C   0  0  0  0  0  0  0  0  0  0  0  0
    5.8645   43.6449   50.0976 C   0  0  0  0  0  0  0  0  0  0  0  0
    4.8205   42.3913   50.6687 Cl  0  0  0  0  0  0  0  0  0  0  0  0
    6.2381   43.5896   48.7483 C   0  0  0  0  0  0  0  0  0  0  0  0
    7.1329   44.5237   48.2240 C   0  0  0  0  0  0  0  0  0  0  0  0
    7.6547   45.5194   49.0447 C   0  0  0  0  0  0  0  0  0  0  0  0
    7.2648   45.5973   50.3861 C   0  0  0  0  0  0  0  0  0  0  0  0
    7.8150   46.5600   51.1946 O   0  0  0  0  0  0  0  0  0  0  0  0
    9.1233   46.1879   51.6529 C   0  0  0  0  0  0  0  0  0  0  0  0
    9.4187   46.8099   52.9887 C   0  0  0  0  0  0  0  0  0  0  0  0
    8.3165   47.3662   53.8547 C   0  0  0  0  0  0  0  0  0  0  0  0
    9.0665   46.1367   54.2936 C   0  0  0  0  0  0  0  0  0  0  0  0
    1.1683   44.3202   53.5111 H   0  0  0  0  0  0  0  0  0  0  0  0
    1.6986   43.0646   52.3410 H   0  0  0  0  0  0  0  0  0  0  0  0
    1.5271   42.6551   54.0816 H   0  0  0  0  0  0  0  0  0  0  0  0
    2.0670   44.4619   56.0244 H   0  0  0  0  0  0  0  0  0  0  0  0
    2.6401   46.5334   57.2355 H   0  0  0  0  0  0  0  0  0  0  0  0
    5.2909   47.7211   54.1993 H   0  0  0  0  0  0  0  0  0  0  0  0
    4.4029   45.9414   51.7993 H   0  0  0  0  0  0  0  0  0  0  0  0
    5.8237   42.8050   48.0981 H   0  0  0  0  0  0  0  0  0  0  0  0
    7.4250   44.4730   47.1647 H   0  0  0  0  0  0  0  0  0  0  0  0
    8.3741   46.2456   48.6384 H   0  0  0  0  0  0  0  0  0  0  0  0
    9.1747   45.0930   51.7458 H   0  0  0  0  0  0  0  0  0  0  0  0
    9.8665   46.5462   50.9254 H   0  0  0  0  0  0  0  0  0  0  0  0
   10.3473   47.2027   52.5489 H   0  0  0  0  0  0  0  0  0  0  0  0
    8.4625   48.3181   54.3862 H   0  0  0  0  0  0  0  0  0  0  0  0
    7.2565   47.6153   53.6986 H   0  0  0  0  0  0  0  0  0  0  0  0
    9.7607   46.1907   55.1452 H   0  0  0  0  0  0  0  0  0  0  0  0
    8.7817   45.1165   54.5904 H   0  0  0  0  0  0  0  0  0  0  0  0
  1  2  1  0
  2  3  1  0
  3  4  2  0
  4  5  1  0
  5  6  2  0
  6  7  1  0
  7  8  2  0
  8  9  1  0
  9 10  1  0
 10 11  2  0
 10 12  1  0
 12 13  2  0
 13 14  1  0
 13 15  1  0
 15 16  2  0
 16 17  1  0
 17 18  2  0
 18 19  1  0
 19 20  1  0
 20 21  1  0
 21 22  1  0
 22 23  1  0
  8  3  1  0
 18 12  1  0
 23 21  1  0
  1 24  1  0
  1 25  1  0
  1 26  1  0
  4 27  1  0
  5 28  1  0
  7 29  1  0
  9 30  1  0
 15 31  1  0
 16 32  1  0
 17 33  1  0
 20 34  1  0
 20 35  1  0
 21 36  1  0
 22 37  1  0
 22 38  1  0
 23 39  1  0
 23 40  1  0
M  END
>  <meeko>  (316) 
{"is_sidechain": false}

>  <CID>  (316) 
Z2994634090

>  <pose_index>  (316) 
6

>  <docking_score>  (316) 
-7.95

>  <rmsd_to_best_selected>  (316) 
1.9115986204259363

>  <MWT>  (316) 
332.78699999999975

>  <TPSA>  (316) 
60.45

>  <logP>  (316) 
3.7847000000000017

>  <HBD>  (316) 
1

>  <HBA>  (316) 
4

>  <SMILES>  (316) 
[H]c1nc([H])c(N([H])C(=O)c2c(Cl)c([H])c([H])c([H])c2OC([H])([H])C2([H])C([H])([H])C2([H])[H])c(OC([H])([H])[H])c1[H]

$$$$
Z2994634090_pose8
     RDKit          3D

 40 42  0  0  0  0  0  0  0  0999 V2000
    1.9292   43.4656   53.4018 C   0  0  0  0  0  0  0  0  0  0  0  0
    3.3158   43.7094   53.6108 O   0  0  0  0  0  0  0  0  0  0  0  0
    3.6465   44.7630   54.4322 C   0  0  0  0  0  0  0  0  0  0  0  0
    2.9945   45.0842   55.6208 C   0  0  0  0  0  0  0  0  0  0  0  0
    3.4467   46.1770   56.3432 C   0  0  0  0  0  0  0  0  0  0  0  0
    4.4811   46.9529   55.9640 N   0  0  0  0  0  0  0  0  0  0  0  0
    5.1018   46.6235   54.8023 C   0  0  0  0  0  0  0  0  0  0  0  0
    4.7305   45.5483   54.0026 C   0  0  0  0  0  0  0  0  0  0  0  0
    5.3609   45.1876   52.7932 N   0  0  0  0  0  0  0  0  0  0  0  0
    5.1820   45.7594   51.5522 C   0  0  0  0  0  0  0  0  0  0  0  0
    4.4620   46.7152   51.2901 O   0  0  0  0  0  0  0  0  0  0  0  0
    5.9750   45.1345   50.4650 C   0  0  0  0  0  0  0  0  0  0  0  0
    5.4080   44.1470   49.6478 C   0  0  0  0  0  0  0  0  0  0  0  0
    3.8164   43.5183   49.8890 Cl  0  0  0  0  0  0  0  0  0  0  0  0
    6.1614   43.5798   48.6109 C   0  0  0  0  0  0  0  0  0  0  0  0
    7.4787   43.9816   48.3927 C   0  0  0  0  0  0  0  0  0  0  0  0
    8.0498   44.9571   49.2050 C   0  0  0  0  0  0  0  0  0  0  0  0
    7.2948   45.5485   50.2238 C   0  0  0  0  0  0  0  0  0  0  0  0
    7.8798   46.4815   51.0423 O   0  0  0  0  0  0  0  0  0  0  0  0
    8.8423   45.8872   51.9263 C   0  0  0  0  0  0  0  0  0  0  0  0
    9.1716   46.8152   53.0617 C   0  0  0  0  0  0  0  0  0  0  0  0
    8.1090   47.6656   53.7111 C   0  0  0  0  0  0  0  0  0  0  0  0
    8.7446   46.5403   54.4841 C   0  0  0  0  0  0  0  0  0  0  0  0
    1.6682   42.4721   53.7955 H   0  0  0  0  0  0  0  0  0  0  0  0
    1.3391   44.2334   53.9237 H   0  0  0  0  0  0  0  0  0  0  0  0
    1.7086   43.5028   52.3248 H   0  0  0  0  0  0  0  0  0  0  0  0
    2.1428   44.4860   55.9766 H   0  0  0  0  0  0  0  0  0  0  0  0
    2.9305   46.4259   57.2821 H   0  0  0  0  0  0  0  0  0  0  0  0
    5.9488   47.2440   54.4742 H   0  0  0  0  0  0  0  0  0  0  0  0
    6.0890   44.4852   52.8956 H   0  0  0  0  0  0  0  0  0  0  0  0
    5.7104   42.8122   47.9649 H   0  0  0  0  0  0  0  0  0  0  0  0
    8.0655   43.5286   47.5800 H   0  0  0  0  0  0  0  0  0  0  0  0
    9.0943   45.2630   49.0459 H   0  0  0  0  0  0  0  0  0  0  0  0
    8.4289   44.9526   52.3332 H   0  0  0  0  0  0  0  0  0  0  0  0
    9.7629   45.6849   51.3592 H   0  0  0  0  0  0  0  0  0  0  0  0
   10.1365   47.0036   52.5683 H   0  0  0  0  0  0  0  0  0  0  0  0
    8.3285   48.7095   53.9795 H   0  0  0  0  0  0  0  0  0  0  0  0
    7.0766   47.9474   53.4568 H   0  0  0  0  0  0  0  0  0  0  0  0
    9.4287   46.7624   55.3164 H   0  0  0  0  0  0  0  0  0  0  0  0
    8.3693   45.6606   55.0274 H   0  0  0  0  0  0  0  0  0  0  0  0
  1  2  1  0
  2  3  1  0
  3  4  2  0
  4  5  1  0
  5  6  2  0
  6  7  1  0
  7  8  2  0
  8  9  1  0
  9 10  1  0
 10 11  2  0
 10 12  1  0
 12 13  2  0
 13 14  1  0
 13 15  1  0
 15 16  2  0
 16 17  1  0
 17 18  2  0
 18 19  1  0
 19 20  1  0
 20 21  1  0
 21 22  1  0
 22 23  1  0
  8  3  1  0
 18 12  1  0
 23 21  1  0
  1 24  1  0
  1 25  1  0
  1 26  1  0
  4 27  1  0
  5 28  1  0
  7 29  1  0
  9 30  1  0
 15 31  1  0
 16 32  1  0
 17 33  1  0
 20 34  1  0
 20 35  1  0
 21 36  1  0
 22 37  1  0
 22 38  1  0
 23 39  1  0
 23 40  1  0
M  END
>  <meeko>  (317) 
{"is_sidechain": false}

>  <CID>  (317) 
Z2994634090

>  <pose_index>  (317) 
8

>  <docking_score>  (317) 
-7.629

>  <rmsd_to_best_selected>  (317) 
1.7836796341848964

>  <MWT>  (317) 
332.78699999999975

>  <TPSA>  (317) 
60.45

>  <logP>  (317) 
3.7847000000000017

>  <HBD>  (317) 
1

>  <HBA>  (317) 
4

>  <SMILES>  (317) 
[H]c1nc([H])c(N([H])C(=O)c2c(Cl)c([H])c([H])c([H])c2OC([H])([H])C2([H])C([H])([H])C2([H])[H])c(OC([H])([H])[H])c1[H]

$$$$
Z2994634090_pose9
     RDKit          3D

 40 42  0  0  0  0  0  0  0  0999 V2000
    2.0369   43.6183   53.0866 C   0  0  0  0  0  0  0  0  0  0  0  0
    2.5059   44.9605   53.0377 O   0  0  0  0  0  0  0  0  0  0  0  0
    3.1568   45.4339   54.1550 C   0  0  0  0  0  0  0  0  0  0  0  0
    2.5462   45.7121   55.3759 C   0  0  0  0  0  0  0  0  0  0  0  0
    3.3359   46.1832   56.4125 C   0  0  0  0  0  0  0  0  0  0  0  0
    4.6637   46.3909   56.3120 N   0  0  0  0  0  0  0  0  0  0  0  0
    5.2385   46.1147   55.1124 C   0  0  0  0  0  0  0  0  0  0  0  0
    4.5394   45.6384   54.0092 C   0  0  0  0  0  0  0  0  0  0  0  0
    5.1152   45.3435   52.7552 N   0  0  0  0  0  0  0  0  0  0  0  0
    5.7193   44.1681   52.3672 C   0  0  0  0  0  0  0  0  0  0  0  0
    5.8283   43.1507   53.0399 O   0  0  0  0  0  0  0  0  0  0  0  0
    6.2569   44.1778   50.9832 C   0  0  0  0  0  0  0  0  0  0  0  0
    5.5234   43.6116   49.9318 C   0  0  0  0  0  0  0  0  0  0  0  0
    4.0212   42.7887   50.1611 Cl  0  0  0  0  0  0  0  0  0  0  0  0
    6.0327   43.6454   48.6261 C   0  0  0  0  0  0  0  0  0  0  0  0
    7.2723   44.2292   48.3661 C   0  0  0  0  0  0  0  0  0  0  0  0
    8.0081   44.7865   49.4087 C   0  0  0  0  0  0  0  0  0  0  0  0
    7.4939   44.7822   50.7095 C   0  0  0  0  0  0  0  0  0  0  0  0
    8.2443   45.3012   51.7334 O   0  0  0  0  0  0  0  0  0  0  0  0
    8.4441   46.7153   51.5858 C   0  0  0  0  0  0  0  0  0  0  0  0
    8.4384   47.3995   52.9243 C   0  0  0  0  0  0  0  0  0  0  0  0
    8.5235   46.6109   54.2064 C   0  0  0  0  0  0  0  0  0  0  0  0
    9.6714   47.4930   53.7915 C   0  0  0  0  0  0  0  0  0  0  0  0
    0.9442   43.6161   53.2133 H   0  0  0  0  0  0  0  0  0  0  0  0
    2.2985   43.1042   52.1499 H   0  0  0  0  0  0  0  0  0  0  0  0
    2.5054   43.0968   53.9342 H   0  0  0  0  0  0  0  0  0  0  0  0
    1.4652   45.5617   55.5135 H   0  0  0  0  0  0  0  0  0  0  0  0
    2.8500   46.4005   57.3752 H   0  0  0  0  0  0  0  0  0  0  0  0
    6.3213   46.2776   55.0079 H   0  0  0  0  0  0  0  0  0  0  0  0
    4.9759   46.0644   52.0530 H   0  0  0  0  0  0  0  0  0  0  0  0
    5.4508   43.2085   47.8012 H   0  0  0  0  0  0  0  0  0  0  0  0
    7.6678   44.2493   47.3399 H   0  0  0  0  0  0  0  0  0  0  0  0
    8.9945   45.2306   49.2091 H   0  0  0  0  0  0  0  0  0  0  0  0
    9.4120   46.8931   51.0944 H   0  0  0  0  0  0  0  0  0  0  0  0
    7.6241   47.1250   50.9778 H   0  0  0  0  0  0  0  0  0  0  0  0
    7.7376   48.1320   52.4973 H   0  0  0  0  0  0  0  0  0  0  0  0
    7.8980   46.8914   55.0666 H   0  0  0  0  0  0  0  0  0  0  0  0
    8.4168   45.5494   54.4740 H   0  0  0  0  0  0  0  0  0  0  0  0
    9.8836   48.4177   54.3481 H   0  0  0  0  0  0  0  0  0  0  0  0
   10.7491   47.3428   53.6303 H   0  0  0  0  0  0  0  0  0  0  0  0
  1  2  1  0
  2  3  1  0
  3  4  2  0
  4  5  1  0
  5  6  2  0
  6  7  1  0
  7  8  2  0
  8  9  1  0
  9 10  1  0
 10 11  2  0
 10 12  1  0
 12 13  2  0
 13 14  1  0
 13 15  1  0
 15 16  2  0
 16 17  1  0
 17 18  2  0
 18 19  1  0
 19 20  1  0
 20 21  1  0
 21 22  1  0
 22 23  1  0
  8  3  1  0
 18 12  1  0
 23 21  1  0
  1 24  1  0
  1 25  1  0
  1 26  1  0
  4 27  1  0
  5 28  1  0
  7 29  1  0
  9 30  1  0
 15 31  1  0
 16 32  1  0
 17 33  1  0
 20 34  1  0
 20 35  1  0
 21 36  1  0
 22 37  1  0
 22 38  1  0
 23 39  1  0
 23 40  1  0
M  END
>  <meeko>  (318) 
{"is_sidechain": false}

>  <CID>  (318) 
Z2994634090

>  <pose_index>  (318) 
9

>  <docking_score>  (318) 
-7.504

>  <rmsd_to_best_selected>  (318) 
1.8281016626834012

>  <MWT>  (318) 
332.78699999999975

>  <TPSA>  (318) 
60.45

>  <logP>  (318) 
3.7847000000000017

>  <HBD>  (318) 
1

>  <HBA>  (318) 
4

>  <SMILES>  (318) 
[H]c1nc([H])c(N([H])C(=O)c2c(Cl)c([H])c([H])c([H])c2OC([H])([H])C2([H])C([H])([H])C2([H])[H])c(OC([H])([H])[H])c1[H]

$$$$
Z2996605995_pose9
     RDKit          3D

 42 44  0  0  0  0  0  0  0  0999 V2000
    1.0999   45.4829   56.6717 C   0  0  0  0  0  0  0  0  0  0  0  0
    2.0944   45.2121   55.5848 C   0  0  0  0  0  0  0  0  0  0  0  0
    2.1875   43.9549   55.0159 C   0  0  0  0  0  0  0  0  0  0  0  0
    3.1353   43.7447   54.0189 C   0  0  0  0  0  0  0  0  0  0  0  0
    3.9887   44.7794   53.6091 C   0  0  0  0  0  0  0  0  0  0  0  0
    4.9132   44.4299   52.5994 N   0  0  0  0  0  0  0  0  0  0  0  0
    4.7090   44.4013   51.2346 C   0  0  0  0  0  0  0  0  0  0  0  0
    3.7053   44.7551   50.6347 O   0  0  0  0  0  0  0  0  0  0  0  0
    5.8932   43.9818   50.4415 C   0  0  0  0  0  0  0  0  0  0  0  0
    5.8903   42.7807   49.7205 C   0  0  0  0  0  0  0  0  0  0  0  0
    4.5846   41.6496   49.7787 Cl  0  0  0  0  0  0  0  0  0  0  0  0
    7.0058   42.4234   48.9518 C   0  0  0  0  0  0  0  0  0  0  0  0
    8.1297   43.2506   48.9042 C   0  0  0  0  0  0  0  0  0  0  0  0
    8.1438   44.4421   49.6244 C   0  0  0  0  0  0  0  0  0  0  0  0
    7.0259   44.8120   50.3726 C   0  0  0  0  0  0  0  0  0  0  0  0
    7.0883   45.9702   51.1066 O   0  0  0  0  0  0  0  0  0  0  0  0
    8.1340   45.8882   52.0875 C   0  0  0  0  0  0  0  0  0  0  0  0
    7.9529   47.0295   53.0403 C   0  0  0  0  0  0  0  0  0  0  0  0
    8.3514   46.8947   54.4872 C   0  0  0  0  0  0  0  0  0  0  0  0
    9.1457   47.7832   53.5693 C   0  0  0  0  0  0  0  0  0  0  0  0
    3.7990   46.0357   54.2012 C   0  0  0  0  0  0  0  0  0  0  0  0
    4.5049   47.2893   53.7826 C   0  0  0  0  0  0  0  0  0  0  0  0
    2.8744   46.2399   55.1874 N   0  0  0  0  0  0  0  0  0  0  0  0
    0.6696   44.5324   57.0201 H   0  0  0  0  0  0  0  0  0  0  0  0
    1.6018   45.9875   57.5105 H   0  0  0  0  0  0  0  0  0  0  0  0
    0.2981   46.1277   56.2828 H   0  0  0  0  0  0  0  0  0  0  0  0
    1.5269   43.1391   55.3444 H   0  0  0  0  0  0  0  0  0  0  0  0
    3.2160   42.7547   53.5463 H   0  0  0  0  0  0  0  0  0  0  0  0
    5.8889   44.4400   52.8800 H   0  0  0  0  0  0  0  0  0  0  0  0
    6.9961   41.4832   48.3810 H   0  0  0  0  0  0  0  0  0  0  0  0
    9.0017   42.9617   48.2991 H   0  0  0  0  0  0  0  0  0  0  0  0
    9.0330   45.0892   49.6036 H   0  0  0  0  0  0  0  0  0  0  0  0
    8.0660   44.9332   52.6291 H   0  0  0  0  0  0  0  0  0  0  0  0
    9.1210   45.9413   51.6047 H   0  0  0  0  0  0  0  0  0  0  0  0
    7.0292   47.3051   52.5104 H   0  0  0  0  0  0  0  0  0  0  0  0
    7.7234   47.3381   55.2740 H   0  0  0  0  0  0  0  0  0  0  0  0
    8.5905   46.0520   55.1525 H   0  0  0  0  0  0  0  0  0  0  0  0
    9.0984   48.8761   53.6851 H   0  0  0  0  0  0  0  0  0  0  0  0
   10.2059   47.8589   53.2858 H   0  0  0  0  0  0  0  0  0  0  0  0
    5.4026   47.0284   53.2028 H   0  0  0  0  0  0  0  0  0  0  0  0
    3.8320   47.8993   53.1621 H   0  0  0  0  0  0  0  0  0  0  0  0
    4.7985   47.8605   54.6757 H   0  0  0  0  0  0  0  0  0  0  0  0
  1  2  1  0
  2  3  2  0
  3  4  1  0
  4  5  2  0
  5  6  1  0
  6  7  1  0
  7  8  2  0
  7  9  1  0
  9 10  2  0
 10 11  1  0
 10 12  1  0
 12 13  2  0
 13 14  1  0
 14 15  2  0
 15 16  1  0
 16 17  1  0
 17 18  1  0
 18 19  1  0
 19 20  1  0
  5 21  1  0
 21 22  1  0
 21 23  2  0
 23  2  1  0
 15  9  1  0
 20 18  1  0
  1 24  1  0
  1 25  1  0
  1 26  1  0
  3 27  1  0
  4 28  1  0
  6 29  1  0
 12 30  1  0
 13 31  1  0
 14 32  1  0
 17 33  1  0
 17 34  1  0
 18 35  1  0
 19 36  1  0
 19 37  1  0
 20 38  1  0
 20 39  1  0
 22 40  1  0
 22 41  1  0
 22 42  1  0
M  END
>  <meeko>  (319) 
{"is_sidechain": false}

>  <CID>  (319) 
Z2996605995

>  <pose_index>  (319) 
9

>  <docking_score>  (319) 
-7.671

>  <rmsd_to_best_selected>  (319) 
1.2971254872359013

>  <MWT>  (319) 
330.81499999999966

>  <TPSA>  (319) 
51.22

>  <logP>  (319) 
4.392940000000003

>  <HBD>  (319) 
1

>  <HBA>  (319) 
3

>  <SMILES>  (319) 
[H]c1c(C([H])([H])[H])nc(C([H])([H])[H])c(N([H])C(=O)c2c(Cl)c([H])c([H])c([H])c2OC([H])([H])C2([H])C([H])([H])C2([H])[H])c1[H]

$$$$
Z2996605995_pose1
     RDKit          3D

 42 44  0  0  0  0  0  0  0  0999 V2000
    0.4110   45.2810   56.5460 C   0  0  0  0  0  0  0  0  0  0  0  0
    1.5060   45.0740   55.5440 C   0  0  0  0  0  0  0  0  0  0  0  0
    1.3630   44.1420   54.5320 C   0  0  0  0  0  0  0  0  0  0  0  0
    2.4100   43.9740   53.6310 C   0  0  0  0  0  0  0  0  0  0  0  0
    3.5910   44.7210   53.7540 C   0  0  0  0  0  0  0  0  0  0  0  0
    4.5800   44.4420   52.7840 N   0  0  0  0  0  0  0  0  0  0  0  0
    4.5930   44.8160   51.4550 C   0  0  0  0  0  0  0  0  0  0  0  0
    3.7840   45.5320   50.8850 O   0  0  0  0  0  0  0  0  0  0  0  0
    5.7860   44.3580   50.6960 C   0  0  0  0  0  0  0  0  0  0  0  0
    5.8050   43.1040   50.0710 C   0  0  0  0  0  0  0  0  0  0  0  0
    4.5200   41.9570   50.2160 Cl  0  0  0  0  0  0  0  0  0  0  0  0
    6.9280   42.7090   49.3320 C   0  0  0  0  0  0  0  0  0  0  0  0
    8.0370   43.5490   49.2200 C   0  0  0  0  0  0  0  0  0  0  0  0
    8.0290   44.7940   49.8460 C   0  0  0  0  0  0  0  0  0  0  0  0
    6.9030   45.2000   50.5640 C   0  0  0  0  0  0  0  0  0  0  0  0
    6.9450   46.4120   51.2060 O   0  0  0  0  0  0  0  0  0  0  0  0
    7.6610   46.3010   52.4450 C   0  0  0  0  0  0  0  0  0  0  0  0
    8.8980   47.1380   52.3310 C   0  0  0  0  0  0  0  0  0  0  0  0
    9.8740   47.2280   53.4750 C   0  0  0  0  0  0  0  0  0  0  0  0
   10.2550   46.4920   52.2190 C   0  0  0  0  0  0  0  0  0  0  0  0
    3.6380   45.6760   54.7780 C   0  0  0  0  0  0  0  0  0  0  0  0
    4.7450   46.6690   54.9660 C   0  0  0  0  0  0  0  0  0  0  0  0
    2.6130   45.8360   55.6690 N   0  0  0  0  0  0  0  0  0  0  0  0
    0.8244   45.2028   57.5623 H   0  0  0  0  0  0  0  0  0  0  0  0
   -0.0308   46.2786   56.4056 H   0  0  0  0  0  0  0  0  0  0  0  0
   -0.3644   44.5135   56.4056 H   0  0  0  0  0  0  0  0  0  0  0  0
    0.4423   43.5470   54.4415 H   0  0  0  0  0  0  0  0  0  0  0  0
    2.3104   43.2464   52.8121 H   0  0  0  0  0  0  0  0  0  0  0  0
    5.4830   44.1570   53.1510 H   0  0  0  0  0  0  0  0  0  0  0  0
    6.9357   41.7275   48.8354 H   0  0  0  0  0  0  0  0  0  0  0  0
    8.9148   43.2292   48.6393 H   0  0  0  0  0  0  0  0  0  0  0  0
    8.9062   45.4539   49.7746 H   0  0  0  0  0  0  0  0  0  0  0  0
    7.0361   46.6665   53.2732 H   0  0  0  0  0  0  0  0  0  0  0  0
    7.9223   45.2518   52.6470 H   0  0  0  0  0  0  0  0  0  0  0  0
    8.3306   47.8665   51.7332 H   0  0  0  0  0  0  0  0  0  0  0  0
   10.3520   48.1890   53.7156 H   0  0  0  0  0  0  0  0  0  0  0  0
    9.8430   46.9753   54.5451 H   0  0  0  0  0  0  0  0  0  0  0  0
   11.0113   46.9152   51.5416 H   0  0  0  0  0  0  0  0  0  0  0  0
   10.6175   45.4788   51.9910 H   0  0  0  0  0  0  0  0  0  0  0  0
    4.9190   46.8250   56.0409 H   0  0  0  0  0  0  0  0  0  0  0  0
    5.6639   46.2868   54.4975 H   0  0  0  0  0  0  0  0  0  0  0  0
    4.4645   47.6239   54.4975 H   0  0  0  0  0  0  0  0  0  0  0  0
  1  2  1  0
  2  3  2  0
  3  4  1  0
  4  5  2  0
  5  6  1  0
  6  7  1  0
  7  8  2  0
  7  9  1  0
  9 10  2  0
 10 11  1  0
 10 12  1  0
 12 13  2  0
 13 14  1  0
 14 15  2  0
 15 16  1  0
 16 17  1  0
 17 18  1  0
 18 19  1  0
 19 20  1  0
  5 21  1  0
 21 22  1  0
 21 23  2  0
 23  2  1  0
 15  9  1  0
 20 18  1  0
  1 24  1  0
  1 25  1  0
  1 26  1  0
  3 27  1  0
  4 28  1  0
  6 29  1  0
 12 30  1  0
 13 31  1  0
 14 32  1  0
 17 33  1  0
 17 34  1  0
 18 35  1  0
 19 36  1  0
 19 37  1  0
 20 38  1  0
 20 39  1  0
 22 40  1  0
 22 41  1  0
 22 42  1  0
M  END
>  <meeko>  (320) 
{"is_sidechain": false}

>  <CID>  (320) 
Z2996605995

>  <pose_index>  (320) 
1

>  <docking_score>  (320) 
-9.115

>  <rmsd_to_best_selected>  (320) 
0.0

>  <MWT>  (320) 
330.81499999999966

>  <TPSA>  (320) 
51.22

>  <logP>  (320) 
4.392940000000003

>  <HBD>  (320) 
1

>  <HBA>  (320) 
3

>  <SMILES>  (320) 
[H]c1c(C([H])([H])[H])nc(C([H])([H])[H])c(N([H])C(=O)c2c(Cl)c([H])c([H])c([H])c2OC([H])([H])C2([H])C([H])([H])C2([H])[H])c1[H]

$$$$
Z2996605995_pose4
     RDKit          3D

 42 44  0  0  0  0  0  0  0  0999 V2000
   -0.0283   44.9276   56.4702 C   0  0  0  0  0  0  0  0  0  0  0  0
    1.0484   44.8880   55.4291 C   0  0  0  0  0  0  0  0  0  0  0  0
    0.9736   43.9942   54.3754 C   0  0  0  0  0  0  0  0  0  0  0  0
    2.0017   43.9836   53.4387 C   0  0  0  0  0  0  0  0  0  0  0  0
    3.0997   44.8475   53.5672 C   0  0  0  0  0  0  0  0  0  0  0  0
    4.0804   44.7242   52.5575 N   0  0  0  0  0  0  0  0  0  0  0  0
    5.3631   44.2274   52.6765 C   0  0  0  0  0  0  0  0  0  0  0  0
    5.8668   43.7234   53.6691 O   0  0  0  0  0  0  0  0  0  0  0  0
    6.1496   44.2381   51.4158 C   0  0  0  0  0  0  0  0  0  0  0  0
    5.9947   43.2247   50.4606 C   0  0  0  0  0  0  0  0  0  0  0  0
    4.9827   41.8447   50.7046 Cl  0  0  0  0  0  0  0  0  0  0  0  0
    6.7212   43.2742   49.2645 C   0  0  0  0  0  0  0  0  0  0  0  0
    7.6111   44.3213   49.0163 C   0  0  0  0  0  0  0  0  0  0  0  0
    7.7779   45.3287   49.9641 C   0  0  0  0  0  0  0  0  0  0  0  0
    7.0380   45.2929   51.1473 C   0  0  0  0  0  0  0  0  0  0  0  0
    7.2585   46.2758   52.0811 O   0  0  0  0  0  0  0  0  0  0  0  0
    8.4667   46.0139   52.8113 C   0  0  0  0  0  0  0  0  0  0  0  0
    9.5045   46.9817   52.3341 C   0  0  0  0  0  0  0  0  0  0  0  0
   10.8279   47.1038   53.0443 C   0  0  0  0  0  0  0  0  0  0  0  0
   10.7658   46.4906   51.6720 C   0  0  0  0  0  0  0  0  0  0  0  0
    3.0772   45.7537   54.6362 C   0  0  0  0  0  0  0  0  0  0  0  0
    4.0775   46.8496   54.8429 C   0  0  0  0  0  0  0  0  0  0  0  0
    2.0710   45.7592   55.5609 N   0  0  0  0  0  0  0  0  0  0  0  0
    0.4166   44.7699   57.4638 H   0  0  0  0  0  0  0  0  0  0  0  0
   -0.5283   45.9070   56.4436 H   0  0  0  0  0  0  0  0  0  0  0  0
   -0.7635   44.1349   56.2677 H   0  0  0  0  0  0  0  0  0  0  0  0
    0.1197   43.3072   54.2806 H   0  0  0  0  0  0  0  0  0  0  0  0
    1.9534   43.2893   52.5868 H   0  0  0  0  0  0  0  0  0  0  0  0
    3.7331   44.7700   51.6038 H   0  0  0  0  0  0  0  0  0  0  0  0
    6.5898   42.4811   48.5137 H   0  0  0  0  0  0  0  0  0  0  0  0
    8.1790   44.3507   48.0747 H   0  0  0  0  0  0  0  0  0  0  0  0
    8.4888   46.1479   49.7810 H   0  0  0  0  0  0  0  0  0  0  0  0
    8.2915   46.1530   53.8883 H   0  0  0  0  0  0  0  0  0  0  0  0
    8.8001   44.9786   52.6467 H   0  0  0  0  0  0  0  0  0  0  0  0
    8.7018   47.6816   52.0588 H   0  0  0  0  0  0  0  0  0  0  0  0
   11.2876   48.0933   53.1841 H   0  0  0  0  0  0  0  0  0  0  0  0
   11.2181   46.7841   54.0218 H   0  0  0  0  0  0  0  0  0  0  0  0
   11.1802   47.0318   50.8086 H   0  0  0  0  0  0  0  0  0  0  0  0
   11.0919   45.5371   51.2310 H   0  0  0  0  0  0  0  0  0  0  0  0
    4.5552   46.7292   55.8264 H   0  0  0  0  0  0  0  0  0  0  0  0
    4.8433   46.8004   54.0548 H   0  0  0  0  0  0  0  0  0  0  0  0
    3.5684   47.8237   54.7992 H   0  0  0  0  0  0  0  0  0  0  0  0
  1  2  1  0
  2  3  2  0
  3  4  1  0
  4  5  2  0
  5  6  1  0
  6  7  1  0
  7  8  2  0
  7  9  1  0
  9 10  2  0
 10 11  1  0
 10 12  1  0
 12 13  2  0
 13 14  1  0
 14 15  2  0
 15 16  1  0
 16 17  1  0
 17 18  1  0
 18 19  1  0
 19 20  1  0
  5 21  1  0
 21 22  1  0
 21 23  2  0
 23  2  1  0
 15  9  1  0
 20 18  1  0
  1 24  1  0
  1 25  1  0
  1 26  1  0
  3 27  1  0
  4 28  1  0
  6 29  1  0
 12 30  1  0
 13 31  1  0
 14 32  1  0
 17 33  1  0
 17 34  1  0
 18 35  1  0
 19 36  1  0
 19 37  1  0
 20 38  1  0
 20 39  1  0
 22 40  1  0
 22 41  1  0
 22 42  1  0
M  END
>  <meeko>  (321) 
{"is_sidechain": false}

>  <CID>  (321) 
Z2996605995

>  <pose_index>  (321) 
4

>  <docking_score>  (321) 
-8.655

>  <rmsd_to_best_selected>  (321) 
1.0649224831138357

>  <MWT>  (321) 
330.81499999999966

>  <TPSA>  (321) 
51.22

>  <logP>  (321) 
4.392940000000003

>  <HBD>  (321) 
1

>  <HBA>  (321) 
3

>  <SMILES>  (321) 
[H]c1c(C([H])([H])[H])nc(C([H])([H])[H])c(N([H])C(=O)c2c(Cl)c([H])c([H])c([H])c2OC([H])([H])C2([H])C([H])([H])C2([H])[H])c1[H]

$$$$
Z2996605995_pose5
     RDKit          3D

 42 44  0  0  0  0  0  0  0  0999 V2000
    0.6844   45.6659   56.4037 C   0  0  0  0  0  0  0  0  0  0  0  0
    1.7308   45.4048   55.3629 C   0  0  0  0  0  0  0  0  0  0  0  0
    1.4291   44.6607   54.2357 C   0  0  0  0  0  0  0  0  0  0  0  0
    2.4353   44.4333   53.3027 C   0  0  0  0  0  0  0  0  0  0  0  0
    3.7304   44.9314   53.5049 C   0  0  0  0  0  0  0  0  0  0  0  0
    4.6596   44.6153   52.4883 N   0  0  0  0  0  0  0  0  0  0  0  0
    5.1896   43.3785   52.1776 C   0  0  0  0  0  0  0  0  0  0  0  0
    4.8896   42.3039   52.6768 O   0  0  0  0  0  0  0  0  0  0  0  0
    6.1514   43.3854   51.0449 C   0  0  0  0  0  0  0  0  0  0  0  0
    5.8285   42.7881   49.8196 C   0  0  0  0  0  0  0  0  0  0  0  0
    4.3618   41.9127   49.5544 Cl  0  0  0  0  0  0  0  0  0  0  0  0
    6.7385   42.8373   48.7557 C   0  0  0  0  0  0  0  0  0  0  0  0
    7.9740   43.4696   48.9078 C   0  0  0  0  0  0  0  0  0  0  0  0
    8.3075   44.0576   50.1254 C   0  0  0  0  0  0  0  0  0  0  0  0
    7.3937   44.0297   51.1799 C   0  0  0  0  0  0  0  0  0  0  0  0
    7.7704   44.5789   52.3801 O   0  0  0  0  0  0  0  0  0  0  0  0
    8.6382   45.7031   52.1697 C   0  0  0  0  0  0  0  0  0  0  0  0
    8.2722   46.7534   53.1712 C   0  0  0  0  0  0  0  0  0  0  0  0
    9.2991   47.7423   53.6587 C   0  0  0  0  0  0  0  0  0  0  0  0
    8.1783   48.2022   52.7658 C   0  0  0  0  0  0  0  0  0  0  0  0
    3.9413   45.7131   54.6471 C   0  0  0  0  0  0  0  0  0  0  0  0
    5.2084   46.4548   54.9490 C   0  0  0  0  0  0  0  0  0  0  0  0
    2.9563   45.9314   55.5700 N   0  0  0  0  0  0  0  0  0  0  0  0
   -0.3104   45.6544   55.9344 H   0  0  0  0  0  0  0  0  0  0  0  0
    0.7339   44.8854   57.1773 H   0  0  0  0  0  0  0  0  0  0  0  0
    0.8617   46.6494   56.8633 H   0  0  0  0  0  0  0  0  0  0  0  0
    0.4171   44.2583   54.0812 H   0  0  0  0  0  0  0  0  0  0  0  0
    2.2121   43.8551   52.3940 H   0  0  0  0  0  0  0  0  0  0  0  0
    4.7590   45.3118   51.7567 H   0  0  0  0  0  0  0  0  0  0  0  0
    6.4776   42.3740   47.7927 H   0  0  0  0  0  0  0  0  0  0  0  0
    8.6829   43.5033   48.0673 H   0  0  0  0  0  0  0  0  0  0  0  0
    9.2866   44.5417   50.2554 H   0  0  0  0  0  0  0  0  0  0  0  0
    9.6859   45.3994   52.3111 H   0  0  0  0  0  0  0  0  0  0  0  0
    8.5261   46.0905   51.1463 H   0  0  0  0  0  0  0  0  0  0  0  0
    7.5939   46.0343   53.6537 H   0  0  0  0  0  0  0  0  0  0  0  0
    9.3163   48.0403   54.7175 H   0  0  0  0  0  0  0  0  0  0  0  0
   10.3968   47.8044   53.6232 H   0  0  0  0  0  0  0  0  0  0  0  0
    7.3763   48.8360   53.1721 H   0  0  0  0  0  0  0  0  0  0  0  0
    8.1176   48.7393   51.8078 H   0  0  0  0  0  0  0  0  0  0  0  0
    5.1045   47.5027   54.6312 H   0  0  0  0  0  0  0  0  0  0  0  0
    5.4062   46.4175   56.0305 H   0  0  0  0  0  0  0  0  0  0  0  0
    6.0443   45.9884   54.4071 H   0  0  0  0  0  0  0  0  0  0  0  0
  1  2  1  0
  2  3  2  0
  3  4  1  0
  4  5  2  0
  5  6  1  0
  6  7  1  0
  7  8  2  0
  7  9  1  0
  9 10  2  0
 10 11  1  0
 10 12  1  0
 12 13  2  0
 13 14  1  0
 14 15  2  0
 15 16  1  0
 16 17  1  0
 17 18  1  0
 18 19  1  0
 19 20  1  0
  5 21  1  0
 21 22  1  0
 21 23  2  0
 23  2  1  0
 15  9  1  0
 20 18  1  0
  1 24  1  0
  1 25  1  0
  1 26  1  0
  3 27  1  0
  4 28  1  0
  6 29  1  0
 12 30  1  0
 13 31  1  0
 14 32  1  0
 17 33  1  0
 17 34  1  0
 18 35  1  0
 19 36  1  0
 19 37  1  0
 20 38  1  0
 20 39  1  0
 22 40  1  0
 22 41  1  0
 22 42  1  0
M  END
>  <meeko>  (322) 
{"is_sidechain": false}

>  <CID>  (322) 
Z2996605995

>  <pose_index>  (322) 
5

>  <docking_score>  (322) 
-8.652

>  <rmsd_to_best_selected>  (322) 
1.597582087177011

>  <MWT>  (322) 
330.81499999999966

>  <TPSA>  (322) 
51.22

>  <logP>  (322) 
4.392940000000003

>  <HBD>  (322) 
1

>  <HBA>  (322) 
3

>  <SMILES>  (322) 
[H]c1c(C([H])([H])[H])nc(C([H])([H])[H])c(N([H])C(=O)c2c(Cl)c([H])c([H])c([H])c2OC([H])([H])C2([H])C([H])([H])C2([H])[H])c1[H]

$$$$
Z2996605995_pose6
     RDKit          3D

 42 44  0  0  0  0  0  0  0  0999 V2000
    0.5635   45.6535   56.3623 C   0  0  0  0  0  0  0  0  0  0  0  0
    1.6615   45.3410   55.3923 C   0  0  0  0  0  0  0  0  0  0  0  0
    1.4974   44.3499   54.4407 C   0  0  0  0  0  0  0  0  0  0  0  0
    2.5484   44.0843   53.5694 C   0  0  0  0  0  0  0  0  0  0  0  0
    3.7549   44.7940   53.6612 C   0  0  0  0  0  0  0  0  0  0  0  0
    4.7443   44.4159   52.7259 N   0  0  0  0  0  0  0  0  0  0  0  0
    4.9732   44.9449   51.4717 C   0  0  0  0  0  0  0  0  0  0  0  0
    4.4084   45.9026   50.9637 O   0  0  0  0  0  0  0  0  0  0  0  0
    6.0985   44.3180   50.7315 C   0  0  0  0  0  0  0  0  0  0  0  0
    6.1108   42.9419   50.4671 C   0  0  0  0  0  0  0  0  0  0  0  0
    4.9028   41.8565   51.0610 Cl  0  0  0  0  0  0  0  0  0  0  0  0
    7.1657   42.3797   49.7378 C   0  0  0  0  0  0  0  0  0  0  0  0
    8.2154   43.1769   49.2772 C   0  0  0  0  0  0  0  0  0  0  0  0
    8.2163   44.5438   49.5438 C   0  0  0  0  0  0  0  0  0  0  0  0
    7.1552   45.1108   50.2506 C   0  0  0  0  0  0  0  0  0  0  0  0
    7.2066   46.4526   50.5348 O   0  0  0  0  0  0  0  0  0  0  0  0
    8.4270   46.7742   51.2198 C   0  0  0  0  0  0  0  0  0  0  0  0
    8.1059   46.9242   52.6748 C   0  0  0  0  0  0  0  0  0  0  0  0
    8.4775   45.8454   53.6595 C   0  0  0  0  0  0  0  0  0  0  0  0
    9.2003   47.1649   53.6819 C   0  0  0  0  0  0  0  0  0  0  0  0
    3.8246   45.8122   54.6204 C   0  0  0  0  0  0  0  0  0  0  0  0
    4.9658   46.7730   54.7603 C   0  0  0  0  0  0  0  0  0  0  0  0
    2.7952   46.0682   55.4831 N   0  0  0  0  0  0  0  0  0  0  0  0
    1.0003   45.9724   57.3202 H   0  0  0  0  0  0  0  0  0  0  0  0
   -0.0638   46.4618   55.9582 H   0  0  0  0  0  0  0  0  0  0  0  0
   -0.0522   44.7559   56.5209 H   0  0  0  0  0  0  0  0  0  0  0  0
    0.5562   43.7844   54.3748 H   0  0  0  0  0  0  0  0  0  0  0  0
    2.4322   43.3080   52.7987 H   0  0  0  0  0  0  0  0  0  0  0  0
    5.5182   43.8774   53.1032 H   0  0  0  0  0  0  0  0  0  0  0  0
    7.1675   41.3003   49.5259 H   0  0  0  0  0  0  0  0  0  0  0  0
    9.0397   42.7264   48.7050 H   0  0  0  0  0  0  0  0  0  0  0  0
    9.0497   45.1735   49.1989 H   0  0  0  0  0  0  0  0  0  0  0  0
    9.1599   45.9660   51.0792 H   0  0  0  0  0  0  0  0  0  0  0  0
    8.8584   47.7047   50.8224 H   0  0  0  0  0  0  0  0  0  0  0  0
    7.1737   47.4393   52.3999 H   0  0  0  0  0  0  0  0  0  0  0  0
    7.7867   45.5828   54.4742 H   0  0  0  0  0  0  0  0  0  0  0  0
    8.7842   44.7920   53.5799 H   0  0  0  0  0  0  0  0  0  0  0  0
    9.0378   47.8668   54.5131 H   0  0  0  0  0  0  0  0  0  0  0  0
   10.2541   47.4752   53.6255 H   0  0  0  0  0  0  0  0  0  0  0  0
    5.8002   46.2783   55.2789 H   0  0  0  0  0  0  0  0  0  0  0  0
    5.2955   47.0986   53.7627 H   0  0  0  0  0  0  0  0  0  0  0  0
    4.6394   47.6477   55.3422 H   0  0  0  0  0  0  0  0  0  0  0  0
  1  2  1  0
  2  3  2  0
  3  4  1  0
  4  5  2  0
  5  6  1  0
  6  7  1  0
  7  8  2  0
  7  9  1  0
  9 10  2  0
 10 11  1  0
 10 12  1  0
 12 13  2  0
 13 14  1  0
 14 15  2  0
 15 16  1  0
 16 17  1  0
 17 18  1  0
 18 19  1  0
 19 20  1  0
  5 21  1  0
 21 22  1  0
 21 23  2  0
 23  2  1  0
 15  9  1  0
 20 18  1  0
  1 24  1  0
  1 25  1  0
  1 26  1  0
  3 27  1  0
  4 28  1  0
  6 29  1  0
 12 30  1  0
 13 31  1  0
 14 32  1  0
 17 33  1  0
 17 34  1  0
 18 35  1  0
 19 36  1  0
 19 37  1  0
 20 38  1  0
 20 39  1  0
 22 40  1  0
 22 41  1  0
 22 42  1  0
M  END
>  <meeko>  (323) 
{"is_sidechain": false}

>  <CID>  (323) 
Z2996605995

>  <pose_index>  (323) 
6

>  <docking_score>  (323) 
-8.122

>  <rmsd_to_best_selected>  (323) 
1.20676712638217

>  <MWT>  (323) 
330.81499999999966

>  <TPSA>  (323) 
51.22

>  <logP>  (323) 
4.392940000000003

>  <HBD>  (323) 
1

>  <HBA>  (323) 
3

>  <SMILES>  (323) 
[H]c1c(C([H])([H])[H])nc(C([H])([H])[H])c(N([H])C(=O)c2c(Cl)c([H])c([H])c([H])c2OC([H])([H])C2([H])C([H])([H])C2([H])[H])c1[H]

$$$$
Z2996605995_pose7
     RDKit          3D

 42 44  0  0  0  0  0  0  0  0999 V2000
    0.6629   45.5433   56.4821 C   0  0  0  0  0  0  0  0  0  0  0  0
    1.7419   45.2092   55.4976 C   0  0  0  0  0  0  0  0  0  0  0  0
    1.4623   44.4334   54.3859 C   0  0  0  0  0  0  0  0  0  0  0  0
    2.4971   44.1363   53.5055 C   0  0  0  0  0  0  0  0  0  0  0  0
    3.7990   44.5987   53.7447 C   0  0  0  0  0  0  0  0  0  0  0  0
    4.7584   44.2138   52.7807 N   0  0  0  0  0  0  0  0  0  0  0  0
    4.9022   44.6859   51.4923 C   0  0  0  0  0  0  0  0  0  0  0  0
    4.2708   45.5906   50.9652 O   0  0  0  0  0  0  0  0  0  0  0  0
    6.0166   44.0672   50.7281 C   0  0  0  0  0  0  0  0  0  0  0  0
    5.7649   43.1957   49.6609 C   0  0  0  0  0  0  0  0  0  0  0  0
    4.1745   42.6820   49.2176 Cl  0  0  0  0  0  0  0  0  0  0  0  0
    6.8323   42.6523   48.9344 C   0  0  0  0  0  0  0  0  0  0  0  0
    8.1511   42.9639   49.2704 C   0  0  0  0  0  0  0  0  0  0  0  0
    8.4106   43.8231   50.3351 C   0  0  0  0  0  0  0  0  0  0  0  0
    7.3492   44.3838   51.0467 C   0  0  0  0  0  0  0  0  0  0  0  0
    7.6393   45.1904   52.1176 O   0  0  0  0  0  0  0  0  0  0  0  0
    8.8701   45.8965   51.8977 C   0  0  0  0  0  0  0  0  0  0  0  0
    8.6080   47.3518   52.1366 C   0  0  0  0  0  0  0  0  0  0  0  0
    7.5589   47.7926   53.1251 C   0  0  0  0  0  0  0  0  0  0  0  0
    9.0171   48.0025   53.4328 C   0  0  0  0  0  0  0  0  0  0  0  0
    3.9900   45.4167   54.8669 C   0  0  0  0  0  0  0  0  0  0  0  0
    5.2675   46.1272   55.1943 C   0  0  0  0  0  0  0  0  0  0  0  0
    2.9747   45.7016   55.7374 N   0  0  0  0  0  0  0  0  0  0  0  0
   -0.2972   45.6419   55.9544 H   0  0  0  0  0  0  0  0  0  0  0  0
    0.5890   44.7413   57.2313 H   0  0  0  0  0  0  0  0  0  0  0  0
    0.9050   46.4921   56.9833 H   0  0  0  0  0  0  0  0  0  0  0  0
    0.4439   44.0600   54.2028 H   0  0  0  0  0  0  0  0  0  0  0  0
    2.2916   43.5310   52.6102 H   0  0  0  0  0  0  0  0  0  0  0  0
    5.5723   43.7293   53.1464 H   0  0  0  0  0  0  0  0  0  0  0  0
    6.6298   41.9744   48.0922 H   0  0  0  0  0  0  0  0  0  0  0  0
    8.9832   42.5316   48.6954 H   0  0  0  0  0  0  0  0  0  0  0  0
    9.4482   44.0590   50.6140 H   0  0  0  0  0  0  0  0  0  0  0  0
    9.6395   45.5348   52.5956 H   0  0  0  0  0  0  0  0  0  0  0  0
    9.2305   45.7329   50.8714 H   0  0  0  0  0  0  0  0  0  0  0  0
    8.8039   47.5459   51.0717 H   0  0  0  0  0  0  0  0  0  0  0  0
    6.9155   48.6549   52.8963 H   0  0  0  0  0  0  0  0  0  0  0  0
    6.7187   47.3017   53.6381 H   0  0  0  0  0  0  0  0  0  0  0  0
    9.4392   49.0183   53.4290 H   0  0  0  0  0  0  0  0  0  0  0  0
    9.6836   47.7285   54.2639 H   0  0  0  0  0  0  0  0  0  0  0  0
    5.2311   47.1507   54.7928 H   0  0  0  0  0  0  0  0  0  0  0  0
    5.3962   46.1659   56.2861 H   0  0  0  0  0  0  0  0  0  0  0  0
    6.1134   45.5867   54.7444 H   0  0  0  0  0  0  0  0  0  0  0  0
  1  2  1  0
  2  3  2  0
  3  4  1  0
  4  5  2  0
  5  6  1  0
  6  7  1  0
  7  8  2  0
  7  9  1  0
  9 10  2  0
 10 11  1  0
 10 12  1  0
 12 13  2  0
 13 14  1  0
 14 15  2  0
 15 16  1  0
 16 17  1  0
 17 18  1  0
 18 19  1  0
 19 20  1  0
  5 21  1  0
 21 22  1  0
 21 23  2  0
 23  2  1  0
 15  9  1  0
 20 18  1  0
  1 24  1  0
  1 25  1  0
  1 26  1  0
  3 27  1  0
  4 28  1  0
  6 29  1  0
 12 30  1  0
 13 31  1  0
 14 32  1  0
 17 33  1  0
 17 34  1  0
 18 35  1  0
 19 36  1  0
 19 37  1  0
 20 38  1  0
 20 39  1  0
 22 40  1  0
 22 41  1  0
 22 42  1  0
M  END
>  <meeko>  (324) 
{"is_sidechain": false}

>  <CID>  (324) 
Z2996605995

>  <pose_index>  (324) 
7

>  <docking_score>  (324) 
-7.829

>  <rmsd_to_best_selected>  (324) 
1.4694850662903884

>  <MWT>  (324) 
330.81499999999966

>  <TPSA>  (324) 
51.22

>  <logP>  (324) 
4.392940000000003

>  <HBD>  (324) 
1

>  <HBA>  (324) 
3

>  <SMILES>  (324) 
[H]c1c(C([H])([H])[H])nc(C([H])([H])[H])c(N([H])C(=O)c2c(Cl)c([H])c([H])c([H])c2OC([H])([H])C2([H])C([H])([H])C2([H])[H])c1[H]

$$$$
Z2996605995_pose8
     RDKit          3D

 42 44  0  0  0  0  0  0  0  0999 V2000
    0.9635   45.5659   56.6400 C   0  0  0  0  0  0  0  0  0  0  0  0
    1.9071   45.3336   55.4991 C   0  0  0  0  0  0  0  0  0  0  0  0
    1.8555   44.1552   54.7753 C   0  0  0  0  0  0  0  0  0  0  0  0
    2.7590   43.9762   53.7326 C   0  0  0  0  0  0  0  0  0  0  0  0
    3.7135   44.9594   53.4318 C   0  0  0  0  0  0  0  0  0  0  0  0
    4.5794   44.6449   52.3598 N   0  0  0  0  0  0  0  0  0  0  0  0
    5.7981   43.9980   52.4151 C   0  0  0  0  0  0  0  0  0  0  0  0
    6.3216   43.5010   53.4017 O   0  0  0  0  0  0  0  0  0  0  0  0
    6.4654   43.8248   51.0999 C   0  0  0  0  0  0  0  0  0  0  0  0
    6.2376   42.6834   50.3198 C   0  0  0  0  0  0  0  0  0  0  0  0
    5.2711   41.3541   50.8532 Cl  0  0  0  0  0  0  0  0  0  0  0  0
    6.8536   42.5584   49.0675 C   0  0  0  0  0  0  0  0  0  0  0  0
    7.7021   43.5582   48.5900 C   0  0  0  0  0  0  0  0  0  0  0  0
    7.9415   44.6928   49.3633 C   0  0  0  0  0  0  0  0  0  0  0  0
    7.3124   44.8304   50.6015 C   0  0  0  0  0  0  0  0  0  0  0  0
    7.6035   45.9372   51.3580 O   0  0  0  0  0  0  0  0  0  0  0  0
    8.9580   45.8817   51.8323 C   0  0  0  0  0  0  0  0  0  0  0  0
    9.0466   46.7373   53.0579 C   0  0  0  0  0  0  0  0  0  0  0  0
    7.9649   47.7366   53.3785 C   0  0  0  0  0  0  0  0  0  0  0  0
    8.1233   46.5036   54.2255 C   0  0  0  0  0  0  0  0  0  0  0  0
    3.6695   46.1424   54.1817 C   0  0  0  0  0  0  0  0  0  0  0  0
    4.4998   47.3581   53.9030 C   0  0  0  0  0  0  0  0  0  0  0  0
    2.7871   46.3159   55.2118 N   0  0  0  0  0  0  0  0  0  0  0  0
    0.4860   46.5503   56.5262 H   0  0  0  0  0  0  0  0  0  0  0  0
    0.1918   44.7821   56.6430 H   0  0  0  0  0  0  0  0  0  0  0  0
    1.5203   45.5359   57.5882 H   0  0  0  0  0  0  0  0  0  0  0  0
    1.1167   43.3775   55.0189 H   0  0  0  0  0  0  0  0  0  0  0  0
    2.7244   43.0523   53.1365 H   0  0  0  0  0  0  0  0  0  0  0  0
    4.1576   44.6717   51.4371 H   0  0  0  0  0  0  0  0  0  0  0  0
    6.6665   41.6640   48.4551 H   0  0  0  0  0  0  0  0  0  0  0  0
    8.1810   43.4509   47.6055 H   0  0  0  0  0  0  0  0  0  0  0  0
    8.6229   45.4760   48.9995 H   0  0  0  0  0  0  0  0  0  0  0  0
    9.2261   44.8439   52.0797 H   0  0  0  0  0  0  0  0  0  0  0  0
    9.6522   46.2430   51.0593 H   0  0  0  0  0  0  0  0  0  0  0  0
   10.1374   46.7870   52.9252 H   0  0  0  0  0  0  0  0  0  0  0  0
    8.2308   48.7226   53.7874 H   0  0  0  0  0  0  0  0  0  0  0  0
    7.1365   48.1929   52.8167 H   0  0  0  0  0  0  0  0  0  0  0  0
    8.5050   46.5882   55.2537 H   0  0  0  0  0  0  0  0  0  0  0  0
    7.4586   45.6853   54.5393 H   0  0  0  0  0  0  0  0  0  0  0  0
    3.8669   48.2558   53.9624 H   0  0  0  0  0  0  0  0  0  0  0  0
    5.3074   47.4289   54.6465 H   0  0  0  0  0  0  0  0  0  0  0  0
    4.9346   47.2820   52.8954 H   0  0  0  0  0  0  0  0  0  0  0  0
  1  2  1  0
  2  3  2  0
  3  4  1  0
  4  5  2  0
  5  6  1  0
  6  7  1  0
  7  8  2  0
  7  9  1  0
  9 10  2  0
 10 11  1  0
 10 12  1  0
 12 13  2  0
 13 14  1  0
 14 15  2  0
 15 16  1  0
 16 17  1  0
 17 18  1  0
 18 19  1  0
 19 20  1  0
  5 21  1  0
 21 22  1  0
 21 23  2  0
 23  2  1  0
 15  9  1  0
 20 18  1  0
  1 24  1  0
  1 25  1  0
  1 26  1  0
  3 27  1  0
  4 28  1  0
  6 29  1  0
 12 30  1  0
 13 31  1  0
 14 32  1  0
 17 33  1  0
 17 34  1  0
 18 35  1  0
 19 36  1  0
 19 37  1  0
 20 38  1  0
 20 39  1  0
 22 40  1  0
 22 41  1  0
 22 42  1  0
M  END
>  <meeko>  (325) 
{"is_sidechain": false}

>  <CID>  (325) 
Z2996605995

>  <pose_index>  (325) 
8

>  <docking_score>  (325) 
-7.726

>  <rmsd_to_best_selected>  (325) 
1.761948358520498

>  <MWT>  (325) 
330.81499999999966

>  <TPSA>  (325) 
51.22

>  <logP>  (325) 
4.392940000000003

>  <HBD>  (325) 
1

>  <HBA>  (325) 
3

>  <SMILES>  (325) 
[H]c1c(C([H])([H])[H])nc(C([H])([H])[H])c(N([H])C(=O)c2c(Cl)c([H])c([H])c([H])c2OC([H])([H])C2([H])C([H])([H])C2([H])[H])c1[H]

$$$$
Z2996605995_pose10
     RDKit          3D

 42 44  0  0  0  0  0  0  0  0999 V2000
    0.7139   45.2560   56.6551 C   0  0  0  0  0  0  0  0  0  0  0  0
    1.7673   44.9803   55.6261 C   0  0  0  0  0  0  0  0  0  0  0  0
    1.6399   43.9058   54.7627 C   0  0  0  0  0  0  0  0  0  0  0  0
    2.6492   43.6807   53.8309 C   0  0  0  0  0  0  0  0  0  0  0  0
    3.7782   44.5105   53.7783 C   0  0  0  0  0  0  0  0  0  0  0  0
    4.7324   44.1609   52.7970 N   0  0  0  0  0  0  0  0  0  0  0  0
    4.7876   44.5756   51.4810 C   0  0  0  0  0  0  0  0  0  0  0  0
    4.0603   45.3931   50.9371 O   0  0  0  0  0  0  0  0  0  0  0  0
    5.9253   44.0191   50.7043 C   0  0  0  0  0  0  0  0  0  0  0  0
    5.7110   43.1127   49.6592 C   0  0  0  0  0  0  0  0  0  0  0  0
    4.1497   42.4864   49.2586 Cl  0  0  0  0  0  0  0  0  0  0  0  0
    6.7967   42.6279   48.9193 C   0  0  0  0  0  0  0  0  0  0  0  0
    8.0990   43.0327   49.2205 C   0  0  0  0  0  0  0  0  0  0  0  0
    8.3228   43.9267   50.2652 C   0  0  0  0  0  0  0  0  0  0  0  0
    7.2404   44.4284   50.9888 C   0  0  0  0  0  0  0  0  0  0  0  0
    7.4975   45.2726   52.0401 O   0  0  0  0  0  0  0  0  0  0  0  0
    8.6444   46.0901   51.7598 C   0  0  0  0  0  0  0  0  0  0  0  0
    8.3659   47.4615   52.2940 C   0  0  0  0  0  0  0  0  0  0  0  0
    8.2830   47.7065   53.7784 C   0  0  0  0  0  0  0  0  0  0  0  0
    9.4465   48.2469   52.9917 C   0  0  0  0  0  0  0  0  0  0  0  0
    3.8086   45.6019   54.6553 C   0  0  0  0  0  0  0  0  0  0  0  0
    4.8496   46.6803   54.6373 C   0  0  0  0  0  0  0  0  0  0  0  0
    2.8221   45.8210   55.5772 N   0  0  0  0  0  0  0  0  0  0  0  0
    1.1779   45.3031   57.6513 H   0  0  0  0  0  0  0  0  0  0  0  0
    0.2260   46.2164   56.4321 H   0  0  0  0  0  0  0  0  0  0  0  0
   -0.0356   44.4511   56.6373 H   0  0  0  0  0  0  0  0  0  0  0  0
    0.7616   43.2454   54.8118 H   0  0  0  0  0  0  0  0  0  0  0  0
    2.5599   42.8406   53.1265 H   0  0  0  0  0  0  0  0  0  0  0  0
    5.5993   43.7698   53.1523 H   0  0  0  0  0  0  0  0  0  0  0  0
    6.6222   41.9222   48.0938 H   0  0  0  0  0  0  0  0  0  0  0  0
    8.9459   42.6466   48.6342 H   0  0  0  0  0  0  0  0  0  0  0  0
    9.3478   44.2356   50.5184 H   0  0  0  0  0  0  0  0  0  0  0  0
    9.5338   45.6696   52.2518 H   0  0  0  0  0  0  0  0  0  0  0  0
    8.8351   46.1291   50.6772 H   0  0  0  0  0  0  0  0  0  0  0  0
    7.7003   47.6434   51.4373 H   0  0  0  0  0  0  0  0  0  0  0  0
    7.5245   48.3941   54.1807 H   0  0  0  0  0  0  0  0  0  0  0  0
    8.1752   47.0673   54.6671 H   0  0  0  0  0  0  0  0  0  0  0  0
    9.5381   49.3294   52.8190 H   0  0  0  0  0  0  0  0  0  0  0  0
   10.5409   48.1662   53.0673 H   0  0  0  0  0  0  0  0  0  0  0  0
    5.8420   46.2347   54.8005 H   0  0  0  0  0  0  0  0  0  0  0  0
    4.8324   47.1904   53.6629 H   0  0  0  0  0  0  0  0  0  0  0  0
    4.6383   47.4071   55.4355 H   0  0  0  0  0  0  0  0  0  0  0  0
  1  2  1  0
  2  3  2  0
  3  4  1  0
  4  5  2  0
  5  6  1  0
  6  7  1  0
  7  8  2  0
  7  9  1  0
  9 10  2  0
 10 11  1  0
 10 12  1  0
 12 13  2  0
 13 14  1  0
 14 15  2  0
 15 16  1  0
 16 17  1  0
 17 18  1  0
 18 19  1  0
 19 20  1  0
  5 21  1  0
 21 22  1  0
 21 23  2  0
 23  2  1  0
 15  9  1  0
 20 18  1  0
  1 24  1  0
  1 25  1  0
  1 26  1  0
  3 27  1  0
  4 28  1  0
  6 29  1  0
 12 30  1  0
 13 31  1  0
 14 32  1  0
 17 33  1  0
 17 34  1  0
 18 35  1  0
 19 36  1  0
 19 37  1  0
 20 38  1  0
 20 39  1  0
 22 40  1  0
 22 41  1  0
 22 42  1  0
M  END
>  <meeko>  (326) 
{"is_sidechain": false}

>  <CID>  (326) 
Z2996605995

>  <pose_index>  (326) 
10

>  <docking_score>  (326) 
-7.631

>  <rmsd_to_best_selected>  (326) 
1.1906643419859098

>  <MWT>  (326) 
330.81499999999966

>  <TPSA>  (326) 
51.22

>  <logP>  (326) 
4.392940000000003

>  <HBD>  (326) 
1

>  <HBA>  (326) 
3

>  <SMILES>  (326) 
[H]c1c(C([H])([H])[H])nc(C([H])([H])[H])c(N([H])C(=O)c2c(Cl)c([H])c([H])c([H])c2OC([H])([H])C2([H])C([H])([H])C2([H])[H])c1[H]

$$$$
Z3000762692_pose2
     RDKit          3D

 45 48  0  0  0  0  0  0  0  0999 V2000
    6.2732   43.9012   54.2382 O   0  0  0  0  0  0  0  0  0  0  0  0
    6.1414   44.7490   53.3581 C   0  0  0  0  0  0  0  0  0  0  0  0
    4.9187   45.1060   52.8607 N   0  0  0  0  0  0  0  0  0  0  0  0
    3.6680   44.4833   53.2666 C   0  0  0  0  0  0  0  0  0  0  0  0
    2.9461   45.3149   54.3293 C   0  0  0  0  0  0  0  0  0  0  0  0
    2.1769   46.3508   53.9120 N   0  0  0  0  0  0  0  0  0  0  0  0
    1.5423   47.0532   54.8675 C   0  0  0  0  0  0  0  0  0  0  0  0
    1.6358   46.7658   56.2078 C   0  0  0  0  0  0  0  0  0  0  0  0
    2.4321   45.6953   56.5322 C   0  0  0  0  0  0  0  0  0  0  0  0
    3.0910   44.9548   55.6240 N   0  0  0  0  0  0  0  0  0  0  0  0
    2.7798   44.3557   52.0471 C   0  0  0  0  0  0  0  0  0  0  0  0
    2.8124   43.1095   51.1934 C   0  0  0  0  0  0  0  0  0  0  0  0
    1.6069   43.4054   52.0394 C   0  0  0  0  0  0  0  0  0  0  0  0
    7.3519   45.4367   52.7924 C   0  0  0  0  0  0  0  0  0  0  0  0
    7.5321   46.7831   53.1624 C   0  0  0  0  0  0  0  0  0  0  0  0
    8.6224   47.5179   52.6992 C   0  0  0  0  0  0  0  0  0  0  0  0
    9.5501   46.9184   51.8556 C   0  0  0  0  0  0  0  0  0  0  0  0
    9.3901   45.5827   51.4787 C   0  0  0  0  0  0  0  0  0  0  0  0
    8.3062   44.8285   51.9522 C   0  0  0  0  0  0  0  0  0  0  0  0
    8.1135   43.5218   51.5821 O   0  0  0  0  0  0  0  0  0  0  0  0
    7.4899   43.3007   50.3167 C   0  0  0  0  0  0  0  0  0  0  0  0
    8.4989   42.6392   49.4265 C   0  0  0  0  0  0  0  0  0  0  0  0
    8.2401   42.4734   47.9519 C   0  0  0  0  0  0  0  0  0  0  0  0
    9.2790   43.4524   48.4255 C   0  0  0  0  0  0  0  0  0  0  0  0
    4.8568   45.8067   52.1273 H   0  0  0  0  0  0  0  0  0  0  0  0
    3.8890   43.4968   53.7002 H   0  0  0  0  0  0  0  0  0  0  0  0
    0.9153   47.9029   54.5595 H   0  0  0  0  0  0  0  0  0  0  0  0
    1.1069   47.3551   56.9714 H   0  0  0  0  0  0  0  0  0  0  0  0
    2.5367   45.4289   57.5943 H   0  0  0  0  0  0  0  0  0  0  0  0
    2.9124   45.4320   51.8623 H   0  0  0  0  0  0  0  0  0  0  0  0
    2.7489   43.1917   50.0983 H   0  0  0  0  0  0  0  0  0  0  0  0
    3.4987   42.2561   51.0901 H   0  0  0  0  0  0  0  0  0  0  0  0
    0.6613   43.7037   51.5631 H   0  0  0  0  0  0  0  0  0  0  0  0
    1.0463   42.8575   52.8111 H   0  0  0  0  0  0  0  0  0  0  0  0
    6.8000   47.2634   53.8282 H   0  0  0  0  0  0  0  0  0  0  0  0
    8.7480   48.5684   53.0003 H   0  0  0  0  0  0  0  0  0  0  0  0
   10.4101   47.4954   51.4848 H   0  0  0  0  0  0  0  0  0  0  0  0
   10.1224   45.1170   50.8028 H   0  0  0  0  0  0  0  0  0  0  0  0
    6.6125   42.6487   50.4392 H   0  0  0  0  0  0  0  0  0  0  0  0
    7.1523   44.2520   49.8796 H   0  0  0  0  0  0  0  0  0  0  0  0
    8.7556   41.9561   50.2496 H   0  0  0  0  0  0  0  0  0  0  0  0
    8.5480   41.5497   47.4401 H   0  0  0  0  0  0  0  0  0  0  0  0
    7.3511   42.5347   47.3070 H   0  0  0  0  0  0  0  0  0  0  0  0
   10.3465   43.2444   48.2604 H   0  0  0  0  0  0  0  0  0  0  0  0
    9.4641   44.5256   48.2707 H   0  0  0  0  0  0  0  0  0  0  0  0
  1  2  2  0
  2  3  1  0
  3  4  1  0
  4  5  1  0
  5  6  2  0
  6  7  1  0
  7  8  2  0
  8  9  1  0
  9 10  2  0
  4 11  1  0
 11 12  1  0
 12 13  1  0
  2 14  1  0
 14 15  2  0
 15 16  1  0
 16 17  2  0
 17 18  1  0
 18 19  2  0
 19 20  1  0
 20 21  1  0
 21 22  1  0
 22 23  1  0
 23 24  1  0
 10  5  1  0
 13 11  1  0
 19 14  1  0
 24 22  1  0
  3 25  1  0
  4 26  1  0
  7 27  1  0
  8 28  1  0
  9 29  1  0
 11 30  1  0
 12 31  1  0
 12 32  1  0
 13 33  1  0
 13 34  1  0
 15 35  1  0
 16 36  1  0
 17 37  1  0
 18 38  1  0
 21 39  1  0
 21 40  1  0
 22 41  1  0
 23 42  1  0
 23 43  1  0
 24 44  1  0
 24 45  1  0
M  END
>  <meeko>  (327) 
{"is_sidechain": false}

>  <CID>  (327) 
Z3000762692

>  <pose_index>  (327) 
2

>  <docking_score>  (327) 
-7.905

>  <rmsd_to_best_selected>  (327) 
0.0

>  <MWT>  (327) 
323.3959999999996

>  <TPSA>  (327) 
64.11

>  <logP>  (327) 
3.1465000000000023

>  <HBD>  (327) 
1

>  <HBA>  (327) 
4

>  <SMILES>  (327) 
[H]c1nc(C([H])(N([H])C(=O)c2c([H])c([H])c([H])c([H])c2OC([H])([H])C2([H])C([H])([H])C2([H])[H])C2([H])C([H])([H])C2([H])[H])nc([H])c1[H]

$$$$
Z3000762692_pose3
     RDKit          3D

 45 48  0  0  0  0  0  0  0  0999 V2000
    6.5922   43.9214   54.4168 O   0  0  0  0  0  0  0  0  0  0  0  0
    6.3495   44.7369   53.5314 C   0  0  0  0  0  0  0  0  0  0  0  0
    5.0859   44.9414   53.0483 N   0  0  0  0  0  0  0  0  0  0  0  0
    3.9235   44.1784   53.4776 C   0  0  0  0  0  0  0  0  0  0  0  0
    2.9889   45.0239   54.3461 C   0  0  0  0  0  0  0  0  0  0  0  0
    1.8750   44.4314   54.8456 N   0  0  0  0  0  0  0  0  0  0  0  0
    1.0822   45.1946   55.6182 C   0  0  0  0  0  0  0  0  0  0  0  0
    1.3514   46.5082   55.9182 C   0  0  0  0  0  0  0  0  0  0  0  0
    2.5044   47.0179   55.3730 C   0  0  0  0  0  0  0  0  0  0  0  0
    3.3383   46.3063   54.5940 N   0  0  0  0  0  0  0  0  0  0  0  0
    3.1751   43.7149   52.2460 C   0  0  0  0  0  0  0  0  0  0  0  0
    3.2856   44.4723   50.9431 C   0  0  0  0  0  0  0  0  0  0  0  0
    3.9116   43.1126   51.0730 C   0  0  0  0  0  0  0  0  0  0  0  0
    7.4615   45.5572   52.9415 C   0  0  0  0  0  0  0  0  0  0  0  0
    7.5419   46.8961   53.3697 C   0  0  0  0  0  0  0  0  0  0  0  0
    8.5371   47.7475   52.8904 C   0  0  0  0  0  0  0  0  0  0  0  0
    9.4664   47.2737   51.9719 C   0  0  0  0  0  0  0  0  0  0  0  0
    9.4052   45.9477   51.5371 C   0  0  0  0  0  0  0  0  0  0  0  0
    8.4187   45.0774   52.0255 C   0  0  0  0  0  0  0  0  0  0  0  0
    8.3234   43.7769   51.5997 O   0  0  0  0  0  0  0  0  0  0  0  0
    8.6032   43.5325   50.2204 C   0  0  0  0  0  0  0  0  0  0  0  0
    7.2959   43.2760   49.5340 C   0  0  0  0  0  0  0  0  0  0  0  0
    7.2425   42.9511   48.0633 C   0  0  0  0  0  0  0  0  0  0  0  0
    6.9352   41.8854   49.0795 C   0  0  0  0  0  0  0  0  0  0  0  0
    4.9323   45.6212   52.3087 H   0  0  0  0  0  0  0  0  0  0  0  0
    4.2637   43.3224   54.0788 H   0  0  0  0  0  0  0  0  0  0  0  0
    0.1688   44.7430   56.0325 H   0  0  0  0  0  0  0  0  0  0  0  0
    0.6869   47.1122   56.5534 H   0  0  0  0  0  0  0  0  0  0  0  0
    2.7599   48.0665   55.5854 H   0  0  0  0  0  0  0  0  0  0  0  0
    2.3464   43.3940   52.8943 H   0  0  0  0  0  0  0  0  0  0  0  0
    2.3965   44.6098   50.3102 H   0  0  0  0  0  0  0  0  0  0  0  0
    3.6475   45.4696   50.6525 H   0  0  0  0  0  0  0  0  0  0  0  0
    3.4803   42.2555   50.5349 H   0  0  0  0  0  0  0  0  0  0  0  0
    4.9208   42.7041   50.9165 H   0  0  0  0  0  0  0  0  0  0  0  0
    6.8074   47.2770   54.0946 H   0  0  0  0  0  0  0  0  0  0  0  0
    8.5863   48.7900   53.2378 H   0  0  0  0  0  0  0  0  0  0  0  0
   10.2501   47.9429   51.5874 H   0  0  0  0  0  0  0  0  0  0  0  0
   10.1387   45.5815   50.8036 H   0  0  0  0  0  0  0  0  0  0  0  0
    9.0950   44.4103   49.7757 H   0  0  0  0  0  0  0  0  0  0  0  0
    9.2754   42.6691   50.1085 H   0  0  0  0  0  0  0  0  0  0  0  0
    6.8269   44.0353   50.1772 H   0  0  0  0  0  0  0  0  0  0  0  0
    6.4368   43.3633   47.4380 H   0  0  0  0  0  0  0  0  0  0  0  0
    7.9437   43.0431   47.2207 H   0  0  0  0  0  0  0  0  0  0  0  0
    5.9049   41.5185   49.1971 H   0  0  0  0  0  0  0  0  0  0  0  0
    7.3188   40.8756   49.2874 H   0  0  0  0  0  0  0  0  0  0  0  0
  1  2  2  0
  2  3  1  0
  3  4  1  0
  4  5  1  0
  5  6  2  0
  6  7  1  0
  7  8  2  0
  8  9  1  0
  9 10  2  0
  4 11  1  0
 11 12  1  0
 12 13  1  0
  2 14  1  0
 14 15  2  0
 15 16  1  0
 16 17  2  0
 17 18  1  0
 18 19  2  0
 19 20  1  0
 20 21  1  0
 21 22  1  0
 22 23  1  0
 23 24  1  0
 10  5  1  0
 13 11  1  0
 19 14  1  0
 24 22  1  0
  3 25  1  0
  4 26  1  0
  7 27  1  0
  8 28  1  0
  9 29  1  0
 11 30  1  0
 12 31  1  0
 12 32  1  0
 13 33  1  0
 13 34  1  0
 15 35  1  0
 16 36  1  0
 17 37  1  0
 18 38  1  0
 21 39  1  0
 21 40  1  0
 22 41  1  0
 23 42  1  0
 23 43  1  0
 24 44  1  0
 24 45  1  0
M  END
>  <meeko>  (328) 
{"is_sidechain": false}

>  <CID>  (328) 
Z3000762692

>  <pose_index>  (328) 
3

>  <docking_score>  (328) 
-7.825

>  <rmsd_to_best_selected>  (328) 
1.663299694679563

>  <MWT>  (328) 
323.3959999999996

>  <TPSA>  (328) 
64.11

>  <logP>  (328) 
3.1465000000000023

>  <HBD>  (328) 
1

>  <HBA>  (328) 
4

>  <SMILES>  (328) 
[H]c1nc(C([H])(N([H])C(=O)c2c([H])c([H])c([H])c([H])c2OC([H])([H])C2([H])C([H])([H])C2([H])[H])C2([H])C([H])([H])C2([H])[H])nc([H])c1[H]

$$$$
Z3000762692_pose4
     RDKit          3D

 45 48  0  0  0  0  0  0  0  0999 V2000
    6.6915   43.7263   53.8310 O   0  0  0  0  0  0  0  0  0  0  0  0
    6.4123   44.7489   53.2104 C   0  0  0  0  0  0  0  0  0  0  0  0
    5.1221   45.1074   52.9278 N   0  0  0  0  0  0  0  0  0  0  0  0
    3.9650   44.2929   53.2670 C   0  0  0  0  0  0  0  0  0  0  0  0
    3.0627   44.9984   54.2821 C   0  0  0  0  0  0  0  0  0  0  0  0
    1.8113   45.3430   53.8899 N   0  0  0  0  0  0  0  0  0  0  0  0
    1.0372   45.9476   54.8081 C   0  0  0  0  0  0  0  0  0  0  0  0
    1.4486   46.2129   56.0921 C   0  0  0  0  0  0  0  0  0  0  0  0
    2.7290   45.8202   56.3985 C   0  0  0  0  0  0  0  0  0  0  0  0
    3.5497   45.2122   55.5250 N   0  0  0  0  0  0  0  0  0  0  0  0
    3.1783   44.0298   52.0007 C   0  0  0  0  0  0  0  0  0  0  0  0
    3.6602   44.5535   50.6680 C   0  0  0  0  0  0  0  0  0  0  0  0
    3.6988   43.0782   50.9497 C   0  0  0  0  0  0  0  0  0  0  0  0
    7.5089   45.6618   52.7370 C   0  0  0  0  0  0  0  0  0  0  0  0
    7.4414   46.9962   53.1791 C   0  0  0  0  0  0  0  0  0  0  0  0
    8.4086   47.9287   52.8040 C   0  0  0  0  0  0  0  0  0  0  0  0
    9.4560   47.5412   51.9777 C   0  0  0  0  0  0  0  0  0  0  0  0
    9.5413   46.2204   51.5297 C   0  0  0  0  0  0  0  0  0  0  0  0
    8.5835   45.2695   51.9145 C   0  0  0  0  0  0  0  0  0  0  0  0
    8.6317   43.9723   51.4725 O   0  0  0  0  0  0  0  0  0  0  0  0
    8.4962   43.7697   50.0653 C   0  0  0  0  0  0  0  0  0  0  0  0
    7.1692   43.1139   49.8302 C   0  0  0  0  0  0  0  0  0  0  0  0
    6.8284   42.5117   48.4921 C   0  0  0  0  0  0  0  0  0  0  0  0
    7.0764   41.6175   49.6758 C   0  0  0  0  0  0  0  0  0  0  0  0
    4.9379   45.9583   52.4046 H   0  0  0  0  0  0  0  0  0  0  0  0
    4.3138   43.3524   53.7184 H   0  0  0  0  0  0  0  0  0  0  0  0
    0.0196   46.2460   54.5157 H   0  0  0  0  0  0  0  0  0  0  0  0
    0.7956   46.7072   56.8264 H   0  0  0  0  0  0  0  0  0  0  0  0
    3.1030   46.0141   57.4147 H   0  0  0  0  0  0  0  0  0  0  0  0
    2.2490   44.1159   52.5830 H   0  0  0  0  0  0  0  0  0  0  0  0
    2.9382   44.9557   49.9420 H   0  0  0  0  0  0  0  0  0  0  0  0
    4.3994   45.3031   50.3492 H   0  0  0  0  0  0  0  0  0  0  0  0
    3.0052   42.4012   50.4296 H   0  0  0  0  0  0  0  0  0  0  0  0
    4.4781   42.3023   50.9220 H   0  0  0  0  0  0  0  0  0  0  0  0
    6.6124   47.3089   53.8310 H   0  0  0  0  0  0  0  0  0  0  0  0
    8.3423   48.9670   53.1611 H   0  0  0  0  0  0  0  0  0  0  0  0
   10.2186   48.2744   51.6760 H   0  0  0  0  0  0  0  0  0  0  0  0
   10.3682   45.9227   50.8682 H   0  0  0  0  0  0  0  0  0  0  0  0
    8.5357   44.7360   49.5412 H   0  0  0  0  0  0  0  0  0  0  0  0
    9.3129   43.1389   49.6843 H   0  0  0  0  0  0  0  0  0  0  0  0
    6.7001   43.8634   50.4845 H   0  0  0  0  0  0  0  0  0  0  0  0
    5.8117   42.6158   48.0852 H   0  0  0  0  0  0  0  0  0  0  0  0
    7.2433   42.5895   47.4763 H   0  0  0  0  0  0  0  0  0  0  0  0
    6.2411   41.0680   50.1345 H   0  0  0  0  0  0  0  0  0  0  0  0
    7.7475   40.7712   49.8839 H   0  0  0  0  0  0  0  0  0  0  0  0
  1  2  2  0
  2  3  1  0
  3  4  1  0
  4  5  1  0
  5  6  2  0
  6  7  1  0
  7  8  2  0
  8  9  1  0
  9 10  2  0
  4 11  1  0
 11 12  1  0
 12 13  1  0
  2 14  1  0
 14 15  2  0
 15 16  1  0
 16 17  2  0
 17 18  1  0
 18 19  2  0
 19 20  1  0
 20 21  1  0
 21 22  1  0
 22 23  1  0
 23 24  1  0
 10  5  1  0
 13 11  1  0
 19 14  1  0
 24 22  1  0
  3 25  1  0
  4 26  1  0
  7 27  1  0
  8 28  1  0
  9 29  1  0
 11 30  1  0
 12 31  1  0
 12 32  1  0
 13 33  1  0
 13 34  1  0
 15 35  1  0
 16 36  1  0
 17 37  1  0
 18 38  1  0
 21 39  1  0
 21 40  1  0
 22 41  1  0
 23 42  1  0
 23 43  1  0
 24 44  1  0
 24 45  1  0
M  END
>  <meeko>  (329) 
{"is_sidechain": false}

>  <CID>  (329) 
Z3000762692

>  <pose_index>  (329) 
4

>  <docking_score>  (329) 
-7.525

>  <rmsd_to_best_selected>  (329) 
1.7369495640043957

>  <MWT>  (329) 
323.3959999999996

>  <TPSA>  (329) 
64.11

>  <logP>  (329) 
3.1465000000000023

>  <HBD>  (329) 
1

>  <HBA>  (329) 
4

>  <SMILES>  (329) 
[H]c1nc(C([H])(N([H])C(=O)c2c([H])c([H])c([H])c([H])c2OC([H])([H])C2([H])C([H])([H])C2([H])[H])C2([H])C([H])([H])C2([H])[H])nc([H])c1[H]

$$$$
Z3000762692_pose5
     RDKit          3D

 45 48  0  0  0  0  0  0  0  0999 V2000
    5.0912   45.9881   51.4097 O   0  0  0  0  0  0  0  0  0  0  0  0
    5.8534   45.5220   52.2542 C   0  0  0  0  0  0  0  0  0  0  0  0
    5.4618   44.5629   53.1469 N   0  0  0  0  0  0  0  0  0  0  0  0
    4.1034   44.0482   53.2355 C   0  0  0  0  0  0  0  0  0  0  0  0
    3.2229   44.9413   54.1140 C   0  0  0  0  0  0  0  0  0  0  0  0
    2.0768   44.4123   54.6106 N   0  0  0  0  0  0  0  0  0  0  0  0
    1.3323   45.2151   55.3917 C   0  0  0  0  0  0  0  0  0  0  0  0
    1.6815   46.5064   55.7028 C   0  0  0  0  0  0  0  0  0  0  0  0
    2.8627   46.9509   55.1603 C   0  0  0  0  0  0  0  0  0  0  0  0
    3.6498   46.1964   54.3728 N   0  0  0  0  0  0  0  0  0  0  0  0
    3.5207   43.9936   51.8399 C   0  0  0  0  0  0  0  0  0  0  0  0
    3.6920   42.7645   50.9773 C   0  0  0  0  0  0  0  0  0  0  0  0
    2.3366   43.1086   51.5292 C   0  0  0  0  0  0  0  0  0  0  0  0
    7.2748   46.0036   52.3268 C   0  0  0  0  0  0  0  0  0  0  0  0
    7.4541   47.3845   52.5288 C   0  0  0  0  0  0  0  0  0  0  0  0
    8.7310   47.9404   52.6161 C   0  0  0  0  0  0  0  0  0  0  0  0
    9.8481   47.1228   52.4991 C   0  0  0  0  0  0  0  0  0  0  0  0
    9.6914   45.7487   52.3001 C   0  0  0  0  0  0  0  0  0  0  0  0
    8.4113   45.1761   52.2282 C   0  0  0  0  0  0  0  0  0  0  0  0
    8.2282   43.8339   52.0133 O   0  0  0  0  0  0  0  0  0  0  0  0
    8.5425   43.3459   50.7075 C   0  0  0  0  0  0  0  0  0  0  0  0
    7.2594   42.8991   50.0740 C   0  0  0  0  0  0  0  0  0  0  0  0
    6.5546   43.7614   49.0592 C   0  0  0  0  0  0  0  0  0  0  0  0
    7.2290   42.4893   48.6244 C   0  0  0  0  0  0  0  0  0  0  0  0
    6.1230   44.2116   53.8328 H   0  0  0  0  0  0  0  0  0  0  0  0
    4.1332   43.0472   53.6905 H   0  0  0  0  0  0  0  0  0  0  0  0
    0.3935   44.8161   55.8034 H   0  0  0  0  0  0  0  0  0  0  0  0
    1.0557   47.1437   56.3449 H   0  0  0  0  0  0  0  0  0  0  0  0
    3.1821   47.9798   55.3819 H   0  0  0  0  0  0  0  0  0  0  0  0
    3.7449   45.0644   51.7254 H   0  0  0  0  0  0  0  0  0  0  0  0
    3.8905   42.8719   49.9008 H   0  0  0  0  0  0  0  0  0  0  0  0
    4.3415   41.8773   51.0092 H   0  0  0  0  0  0  0  0  0  0  0  0
    1.5441   43.4674   50.8559 H   0  0  0  0  0  0  0  0  0  0  0  0
    1.5853   42.5767   52.1313 H   0  0  0  0  0  0  0  0  0  0  0  0
    6.5729   48.0366   52.6194 H   0  0  0  0  0  0  0  0  0  0  0  0
    8.8526   49.0218   52.7769 H   0  0  0  0  0  0  0  0  0  0  0  0
   10.8565   47.5575   52.5632 H   0  0  0  0  0  0  0  0  0  0  0  0
   10.5803   45.1087   52.1986 H   0  0  0  0  0  0  0  0  0  0  0  0
    8.9994   44.1463   50.1070 H   0  0  0  0  0  0  0  0  0  0  0  0
    9.2571   42.5116   50.7667 H   0  0  0  0  0  0  0  0  0  0  0  0
    6.9706   42.4296   51.0259 H   0  0  0  0  0  0  0  0  0  0  0  0
    5.4566   43.8284   49.0622 H   0  0  0  0  0  0  0  0  0  0  0  0
    6.6184   44.8175   48.7579 H   0  0  0  0  0  0  0  0  0  0  0  0
    6.6242   41.6261   48.3095 H   0  0  0  0  0  0  0  0  0  0  0  0
    7.9901   42.2302   47.8736 H   0  0  0  0  0  0  0  0  0  0  0  0
  1  2  2  0
  2  3  1  0
  3  4  1  0
  4  5  1  0
  5  6  2  0
  6  7  1  0
  7  8  2  0
  8  9  1  0
  9 10  2  0
  4 11  1  0
 11 12  1  0
 12 13  1  0
  2 14  1  0
 14 15  2  0
 15 16  1  0
 16 17  2  0
 17 18  1  0
 18 19  2  0
 19 20  1  0
 20 21  1  0
 21 22  1  0
 22 23  1  0
 23 24  1  0
 10  5  1  0
 13 11  1  0
 19 14  1  0
 24 22  1  0
  3 25  1  0
  4 26  1  0
  7 27  1  0
  8 28  1  0
  9 29  1  0
 11 30  1  0
 12 31  1  0
 12 32  1  0
 13 33  1  0
 13 34  1  0
 15 35  1  0
 16 36  1  0
 17 37  1  0
 18 38  1  0
 21 39  1  0
 21 40  1  0
 22 41  1  0
 23 42  1  0
 23 43  1  0
 24 44  1  0
 24 45  1  0
M  END
>  <meeko>  (330) 
{"is_sidechain": false}

>  <CID>  (330) 
Z3000762692

>  <pose_index>  (330) 
5

>  <docking_score>  (330) 
-7.209

>  <rmsd_to_best_selected>  (330) 
1.6895668503204626

>  <MWT>  (330) 
323.3959999999996

>  <TPSA>  (330) 
64.11

>  <logP>  (330) 
3.1465000000000023

>  <HBD>  (330) 
1

>  <HBA>  (330) 
4

>  <SMILES>  (330) 
[H]c1nc(C([H])(N([H])C(=O)c2c([H])c([H])c([H])c([H])c2OC([H])([H])C2([H])C([H])([H])C2([H])[H])C2([H])C([H])([H])C2([H])[H])nc([H])c1[H]

$$$$
Z3000762692_pose6
     RDKit          3D

 45 48  0  0  0  0  0  0  0  0999 V2000
    6.7033   44.1600   54.6299 O   0  0  0  0  0  0  0  0  0  0  0  0
    6.6606   44.8476   53.6131 C   0  0  0  0  0  0  0  0  0  0  0  0
    5.5416   44.9319   52.8308 N   0  0  0  0  0  0  0  0  0  0  0  0
    4.3246   44.1748   53.0778 C   0  0  0  0  0  0  0  0  0  0  0  0
    3.2504   45.0426   53.7399 C   0  0  0  0  0  0  0  0  0  0  0  0
    2.8657   46.1760   53.1008 N   0  0  0  0  0  0  0  0  0  0  0  0
    1.9101   46.9090   53.7003 C   0  0  0  0  0  0  0  0  0  0  0  0
    1.3209   46.5617   54.8914 C   0  0  0  0  0  0  0  0  0  0  0  0
    1.7714   45.3939   55.4588 C   0  0  0  0  0  0  0  0  0  0  0  0
    2.7230   44.6182   54.9090 N   0  0  0  0  0  0  0  0  0  0  0  0
    3.8017   43.6636   51.7519 C   0  0  0  0  0  0  0  0  0  0  0  0
    3.7167   42.1811   51.4753 C   0  0  0  0  0  0  0  0  0  0  0  0
    2.4584   42.9805   51.6612 C   0  0  0  0  0  0  0  0  0  0  0  0
    7.8668   45.6400   53.1924 C   0  0  0  0  0  0  0  0  0  0  0  0
    8.7953   45.9436   54.2051 C   0  0  0  0  0  0  0  0  0  0  0  0
    9.9526   46.6695   53.9274 C   0  0  0  0  0  0  0  0  0  0  0  0
   10.1974   47.1081   52.6314 C   0  0  0  0  0  0  0  0  0  0  0  0
    9.2889   46.8147   51.6107 C   0  0  0  0  0  0  0  0  0  0  0  0
    8.1291   46.0690   51.8759 C   0  0  0  0  0  0  0  0  0  0  0  0
    7.2104   45.7857   50.8988 O   0  0  0  0  0  0  0  0  0  0  0  0
    7.6210   44.8727   49.8790 C   0  0  0  0  0  0  0  0  0  0  0  0
    6.5068   43.8929   49.6768 C   0  0  0  0  0  0  0  0  0  0  0  0
    6.2851   43.2357   48.3382 C   0  0  0  0  0  0  0  0  0  0  0  0
    6.8050   42.4267   49.4953 C   0  0  0  0  0  0  0  0  0  0  0  0
    5.5531   45.5073   51.9931 H   0  0  0  0  0  0  0  0  0  0  0  0
    4.5577   43.3426   53.7583 H   0  0  0  0  0  0  0  0  0  0  0  0
    1.5827   47.8374   53.2096 H   0  0  0  0  0  0  0  0  0  0  0  0
    0.5398   47.1780   55.3604 H   0  0  0  0  0  0  0  0  0  0  0  0
    1.3296   45.0762   56.4148 H   0  0  0  0  0  0  0  0  0  0  0  0
    4.2733   44.5244   51.2554 H   0  0  0  0  0  0  0  0  0  0  0  0
    3.9786   41.7918   50.4804 H   0  0  0  0  0  0  0  0  0  0  0  0
    4.1396   41.2784   51.9405 H   0  0  0  0  0  0  0  0  0  0  0  0
    1.7995   43.1758   50.8023 H   0  0  0  0  0  0  0  0  0  0  0  0
    1.5798   42.9043   52.3188 H   0  0  0  0  0  0  0  0  0  0  0  0
    8.6047   45.6025   55.2334 H   0  0  0  0  0  0  0  0  0  0  0  0
   10.6695   46.8942   54.7309 H   0  0  0  0  0  0  0  0  0  0  0  0
   11.1064   47.6863   52.4091 H   0  0  0  0  0  0  0  0  0  0  0  0
    9.4845   47.1717   50.5888 H   0  0  0  0  0  0  0  0  0  0  0  0
    7.8164   45.4176   48.9436 H   0  0  0  0  0  0  0  0  0  0  0  0
    8.5450   44.3534   50.1731 H   0  0  0  0  0  0  0  0  0  0  0  0
    5.8828   44.4850   50.3623 H   0  0  0  0  0  0  0  0  0  0  0  0
    5.2620   43.0721   47.9687 H   0  0  0  0  0  0  0  0  0  0  0  0
    6.6254   43.4305   47.3105 H   0  0  0  0  0  0  0  0  0  0  0  0
    6.1620   41.6718   49.9713 H   0  0  0  0  0  0  0  0  0  0  0  0
    7.6828   41.7854   49.6632 H   0  0  0  0  0  0  0  0  0  0  0  0
  1  2  2  0
  2  3  1  0
  3  4  1  0
  4  5  1  0
  5  6  2  0
  6  7  1  0
  7  8  2  0
  8  9  1  0
  9 10  2  0
  4 11  1  0
 11 12  1  0
 12 13  1  0
  2 14  1  0
 14 15  2  0
 15 16  1  0
 16 17  2  0
 17 18  1  0
 18 19  2  0
 19 20  1  0
 20 21  1  0
 21 22  1  0
 22 23  1  0
 23 24  1  0
 10  5  1  0
 13 11  1  0
 19 14  1  0
 24 22  1  0
  3 25  1  0
  4 26  1  0
  7 27  1  0
  8 28  1  0
  9 29  1  0
 11 30  1  0
 12 31  1  0
 12 32  1  0
 13 33  1  0
 13 34  1  0
 15 35  1  0
 16 36  1  0
 17 37  1  0
 18 38  1  0
 21 39  1  0
 21 40  1  0
 22 41  1  0
 23 42  1  0
 23 43  1  0
 24 44  1  0
 24 45  1  0
M  END
>  <meeko>  (331) 
{"is_sidechain": false}

>  <CID>  (331) 
Z3000762692

>  <pose_index>  (331) 
6

>  <docking_score>  (331) 
-7.188

>  <rmsd_to_best_selected>  (331) 
1.9139971628748667

>  <MWT>  (331) 
323.3959999999996

>  <TPSA>  (331) 
64.11

>  <logP>  (331) 
3.1465000000000023

>  <HBD>  (331) 
1

>  <HBA>  (331) 
4

>  <SMILES>  (331) 
[H]c1nc(C([H])(N([H])C(=O)c2c([H])c([H])c([H])c([H])c2OC([H])([H])C2([H])C([H])([H])C2([H])[H])C2([H])C([H])([H])C2([H])[H])nc([H])c1[H]

$$$$
Z3000762692_pose10
     RDKit          3D

 45 48  0  0  0  0  0  0  0  0999 V2000
    4.8001   43.4102   50.0649 O   0  0  0  0  0  0  0  0  0  0  0  0
    5.5720   43.6302   50.9953 C   0  0  0  0  0  0  0  0  0  0  0  0
    5.1547   44.1599   52.1860 N   0  0  0  0  0  0  0  0  0  0  0  0
    3.7849   44.5751   52.4489 C   0  0  0  0  0  0  0  0  0  0  0  0
    3.0753   43.5966   53.3892 C   0  0  0  0  0  0  0  0  0  0  0  0
    3.5013   42.3091   53.4062 N   0  0  0  0  0  0  0  0  0  0  0  0
    2.8688   41.4771   54.2528 C   0  0  0  0  0  0  0  0  0  0  0  0
    1.8450   41.8704   55.0814 C   0  0  0  0  0  0  0  0  0  0  0  0
    1.4889   43.1951   54.9976 C   0  0  0  0  0  0  0  0  0  0  0  0
    2.0826   44.0745   54.1727 N   0  0  0  0  0  0  0  0  0  0  0  0
    3.8160   45.9463   53.0902 C   0  0  0  0  0  0  0  0  0  0  0  0
    3.7682   47.1962   52.2425 C   0  0  0  0  0  0  0  0  0  0  0  0
    2.5886   46.8256   53.0968 C   0  0  0  0  0  0  0  0  0  0  0  0
    7.0329   43.3123   50.8479 C   0  0  0  0  0  0  0  0  0  0  0  0
    7.4868   42.1555   51.5091 C   0  0  0  0  0  0  0  0  0  0  0  0
    8.8229   41.7624   51.4383 C   0  0  0  0  0  0  0  0  0  0  0  0
    9.7282   42.5235   50.7076 C   0  0  0  0  0  0  0  0  0  0  0  0
    9.2962   43.6738   50.0416 C   0  0  0  0  0  0  0  0  0  0  0  0
    7.9503   44.0695   50.0921 C   0  0  0  0  0  0  0  0  0  0  0  0
    7.5038   45.2052   49.4669 O   0  0  0  0  0  0  0  0  0  0  0  0
    8.0721   46.4415   49.9025 C   0  0  0  0  0  0  0  0  0  0  0  0
    7.1021   47.0704   50.8568 C   0  0  0  0  0  0  0  0  0  0  0  0
    7.4198   47.1787   52.3260 C   0  0  0  0  0  0  0  0  0  0  0  0
    7.4002   48.4148   51.4685 C   0  0  0  0  0  0  0  0  0  0  0  0
    5.8289   44.3330   52.9252 H   0  0  0  0  0  0  0  0  0  0  0  0
    3.2319   44.5957   51.4982 H   0  0  0  0  0  0  0  0  0  0  0  0
    3.1880   40.4249   54.2837 H   0  0  0  0  0  0  0  0  0  0  0  0
    1.3438   41.1709   55.7665 H   0  0  0  0  0  0  0  0  0  0  0  0
    0.6728   43.5555   55.6411 H   0  0  0  0  0  0  0  0  0  0  0  0
    4.4952   45.5508   53.8598 H   0  0  0  0  0  0  0  0  0  0  0  0
    4.3883   48.0649   52.5086 H   0  0  0  0  0  0  0  0  0  0  0  0
    3.9157   47.4173   51.1750 H   0  0  0  0  0  0  0  0  0  0  0  0
    2.3459   47.4235   53.9876 H   0  0  0  0  0  0  0  0  0  0  0  0
    1.5164   46.6637   52.9123 H   0  0  0  0  0  0  0  0  0  0  0  0
    6.7756   41.5514   52.0915 H   0  0  0  0  0  0  0  0  0  0  0  0
    9.1593   40.8536   51.9587 H   0  0  0  0  0  0  0  0  0  0  0  0
   10.7842   42.2204   50.6537 H   0  0  0  0  0  0  0  0  0  0  0  0
   10.0190   44.2758   49.4714 H   0  0  0  0  0  0  0  0  0  0  0  0
    9.0310   46.2566   50.4088 H   0  0  0  0  0  0  0  0  0  0  0  0
    8.2594   47.1056   49.0458 H   0  0  0  0  0  0  0  0  0  0  0  0
    6.2736   46.6432   50.2728 H   0  0  0  0  0  0  0  0  0  0  0  0
    6.6292   47.0151   53.0731 H   0  0  0  0  0  0  0  0  0  0  0  0
    8.1532   46.7110   52.9994 H   0  0  0  0  0  0  0  0  0  0  0  0
    6.5953   49.1548   51.5889 H   0  0  0  0  0  0  0  0  0  0  0  0
    8.1134   49.2248   51.2558 H   0  0  0  0  0  0  0  0  0  0  0  0
  1  2  2  0
  2  3  1  0
  3  4  1  0
  4  5  1  0
  5  6  2  0
  6  7  1  0
  7  8  2  0
  8  9  1  0
  9 10  2  0
  4 11  1  0
 11 12  1  0
 12 13  1  0
  2 14  1  0
 14 15  2  0
 15 16  1  0
 16 17  2  0
 17 18  1  0
 18 19  2  0
 19 20  1  0
 20 21  1  0
 21 22  1  0
 22 23  1  0
 23 24  1  0
 10  5  1  0
 13 11  1  0
 19 14  1  0
 24 22  1  0
  3 25  1  0
  4 26  1  0
  7 27  1  0
  8 28  1  0
  9 29  1  0
 11 30  1  0
 12 31  1  0
 12 32  1  0
 13 33  1  0
 13 34  1  0
 15 35  1  0
 16 36  1  0
 17 37  1  0
 18 38  1  0
 21 39  1  0
 21 40  1  0
 22 41  1  0
 23 42  1  0
 23 43  1  0
 24 44  1  0
 24 45  1  0
M  END
>  <meeko>  (332) 
{"is_sidechain": false}

>  <CID>  (332) 
Z3000762692

>  <pose_index>  (332) 
10

>  <docking_score>  (332) 
-6.853

>  <rmsd_to_best_selected>  (332) 
1.584799113800524

>  <MWT>  (332) 
323.3959999999996

>  <TPSA>  (332) 
64.11

>  <logP>  (332) 
3.1465000000000023

>  <HBD>  (332) 
1

>  <HBA>  (332) 
4

>  <SMILES>  (332) 
[H]c1nc(C([H])(N([H])C(=O)c2c([H])c([H])c([H])c([H])c2OC([H])([H])C2([H])C([H])([H])C2([H])[H])C2([H])C([H])([H])C2([H])[H])nc([H])c1[H]

$$$$
Z3006954377_pose4
     RDKit          3D

 40 42  0  0  0  0  0  0  0  0999 V2000
    0.8779   45.2426   56.5371 C   0  0  0  0  0  0  0  0  0  0  0  0
    2.0238   44.5380   55.9088 C   0  0  0  0  0  0  0  0  0  0  0  0
    2.6274   43.5362   56.5602 N   0  0  0  0  0  0  0  0  0  0  0  0
    3.5963   43.1419   55.7191 N   0  0  0  0  0  0  0  0  0  0  0  0
    3.6308   43.8539   54.5488 C   0  0  0  0  0  0  0  0  0  0  0  0
    4.5378   43.6226   53.5342 N   0  0  0  0  0  0  0  0  0  0  0  0
    5.7195   44.3385   53.4300 C   0  0  0  0  0  0  0  0  0  0  0  0
    6.0637   45.2311   54.1996 O   0  0  0  0  0  0  0  0  0  0  0  0
    6.5762   43.9824   52.2689 C   0  0  0  0  0  0  0  0  0  0  0  0
    7.0351   42.6700   52.0894 C   0  0  0  0  0  0  0  0  0  0  0  0
    6.5657   41.3534   53.1088 Cl  0  0  0  0  0  0  0  0  0  0  0  0
    7.8673   42.3583   51.0037 C   0  0  0  0  0  0  0  0  0  0  0  0
    8.2413   43.3436   50.0912 C   0  0  0  0  0  0  0  0  0  0  0  0
    7.7811   44.6461   50.2530 C   0  0  0  0  0  0  0  0  0  0  0  0
    6.9696   44.9686   51.3473 C   0  0  0  0  0  0  0  0  0  0  0  0
    6.5043   46.2540   51.4563 O   0  0  0  0  0  0  0  0  0  0  0  0
    7.3719   47.2010   50.8129 C   0  0  0  0  0  0  0  0  0  0  0  0
    8.4563   47.5889   51.7718 C   0  0  0  0  0  0  0  0  0  0  0  0
    9.0937   48.9538   51.7022 C   0  0  0  0  0  0  0  0  0  0  0  0
    9.8845   47.7362   51.3098 C   0  0  0  0  0  0  0  0  0  0  0  0
    2.6210   44.7891   54.6396 C   0  0  0  0  0  0  0  0  0  0  0  0
    2.2493   45.8213   53.6442 C   0  0  0  0  0  0  0  0  0  0  0  0
    1.2346   45.8288   57.3968 H   0  0  0  0  0  0  0  0  0  0  0  0
    0.4135   45.9160   55.8016 H   0  0  0  0  0  0  0  0  0  0  0  0
    0.1365   44.5051   56.8784 H   0  0  0  0  0  0  0  0  0  0  0  0
    4.2225   42.3851   55.9843 H   0  0  0  0  0  0  0  0  0  0  0  0
    4.2747   42.9874   52.7891 H   0  0  0  0  0  0  0  0  0  0  0  0
    8.2278   41.3275   50.8715 H   0  0  0  0  0  0  0  0  0  0  0  0
    8.8984   43.0917   49.2457 H   0  0  0  0  0  0  0  0  0  0  0  0
    8.0542   45.4217   49.5224 H   0  0  0  0  0  0  0  0  0  0  0  0
    7.8166   46.7454   49.9159 H   0  0  0  0  0  0  0  0  0  0  0  0
    6.7990   48.0917   50.5153 H   0  0  0  0  0  0  0  0  0  0  0  0
    7.9481   47.0038   52.5524 H   0  0  0  0  0  0  0  0  0  0  0  0
    8.7725   49.6719   50.9334 H   0  0  0  0  0  0  0  0  0  0  0  0
    9.2406   49.7801   52.4132 H   0  0  0  0  0  0  0  0  0  0  0  0
   10.1413   47.5641   50.2542 H   0  0  0  0  0  0  0  0  0  0  0  0
   10.8487   47.3039   51.6153 H   0  0  0  0  0  0  0  0  0  0  0  0
    2.2564   46.8117   54.1228 H   0  0  0  0  0  0  0  0  0  0  0  0
    2.9729   45.8092   52.8158 H   0  0  0  0  0  0  0  0  0  0  0  0
    1.2426   45.6095   53.2548 H   0  0  0  0  0  0  0  0  0  0  0  0
  1  2  1  0
  2  3  2  0
  3  4  1  0
  4  5  1  0
  5  6  1  0
  6  7  1  0
  7  8  2  0
  7  9  1  0
  9 10  2  0
 10 11  1  0
 10 12  1  0
 12 13  2  0
 13 14  1  0
 14 15  2  0
 15 16  1  0
 16 17  1  0
 17 18  1  0
 18 19  1  0
 19 20  1  0
  5 21  2  0
 21 22  1  0
 21  2  1  0
 15  9  1  0
 20 18  1  0
  1 23  1  0
  1 24  1  0
  1 25  1  0
  4 26  1  0
  6 27  1  0
 12 28  1  0
 13 29  1  0
 14 30  1  0
 17 31  1  0
 17 32  1  0
 18 33  1  0
 19 34  1  0
 19 35  1  0
 20 36  1  0
 20 37  1  0
 22 38  1  0
 22 39  1  0
 22 40  1  0
M  END
>  <meeko>  (333) 
{"is_sidechain": false}

>  <CID>  (333) 
Z3006954377

>  <pose_index>  (333) 
4

>  <docking_score>  (333) 
-8.297

>  <rmsd_to_best_selected>  (333) 
1.5086648681347725

>  <MWT>  (333) 
319.7919999999997

>  <TPSA>  (333) 
67.01

>  <logP>  (333) 
3.721040000000003

>  <HBD>  (333) 
2

>  <HBA>  (333) 
3

>  <SMILES>  (333) 
[H]c1c([H])c(Cl)c(C(=O)N([H])c2c(C([H])([H])[H])c(C([H])([H])[H])nn2[H])c(OC([H])([H])C2([H])C([H])([H])C2([H])[H])c1[H]

$$$$
Z3006954377_pose1
     RDKit          3D

 40 42  0  0  0  0  0  0  0  0999 V2000
    1.2130   45.4700   56.2920 C   0  0  0  0  0  0  0  0  0  0  0  0
    1.9560   44.8680   55.1560 C   0  0  0  0  0  0  0  0  0  0  0  0
    1.3760   43.9190   54.4100 N   0  0  0  0  0  0  0  0  0  0  0  0
    2.3130   43.6090   53.4990 N   0  0  0  0  0  0  0  0  0  0  0  0
    3.4710   44.3290   53.6340 C   0  0  0  0  0  0  0  0  0  0  0  0
    4.5680   44.1840   52.8100 N   0  0  0  0  0  0  0  0  0  0  0  0
    4.5310   44.5340   51.4700 C   0  0  0  0  0  0  0  0  0  0  0  0
    3.5430   44.9840   50.8950 O   0  0  0  0  0  0  0  0  0  0  0  0
    5.7890   44.2960   50.7160 C   0  0  0  0  0  0  0  0  0  0  0  0
    5.9890   43.1020   50.0100 C   0  0  0  0  0  0  0  0  0  0  0  0
    4.7780   41.8770   49.8560 Cl  0  0  0  0  0  0  0  0  0  0  0  0
    7.1940   42.8810   49.3280 C   0  0  0  0  0  0  0  0  0  0  0  0
    8.2030   43.8460   49.3400 C   0  0  0  0  0  0  0  0  0  0  0  0
    8.0090   45.0390   50.0280 C   0  0  0  0  0  0  0  0  0  0  0  0
    6.8170   45.2550   50.7290 C   0  0  0  0  0  0  0  0  0  0  0  0
    6.6450   46.4580   51.3650 O   0  0  0  0  0  0  0  0  0  0  0  0
    7.2790   46.4840   52.6550 C   0  0  0  0  0  0  0  0  0  0  0  0
    8.4520   47.4130   52.5960 C   0  0  0  0  0  0  0  0  0  0  0  0
    9.8610   46.8770   52.5980 C   0  0  0  0  0  0  0  0  0  0  0  0
    9.3390   47.6190   53.7980 C   0  0  0  0  0  0  0  0  0  0  0  0
    3.2810   45.1590   54.7200 C   0  0  0  0  0  0  0  0  0  0  0  0
    4.2410   46.1260   55.3000 C   0  0  0  0  0  0  0  0  0  0  0  0
    1.6460   45.1192   57.2404 H   0  0  0  0  0  0  0  0  0  0  0  0
    1.2867   46.5662   56.2386 H   0  0  0  0  0  0  0  0  0  0  0  0
    0.1559   45.1706   56.2386 H   0  0  0  0  0  0  0  0  0  0  0  0
    2.1270   42.8910   52.8030 H   0  0  0  0  0  0  0  0  0  0  0  0
    5.3850   43.7080   53.1770 H   0  0  0  0  0  0  0  0  0  0  0  0
    7.3456   41.9399   48.7791 H   0  0  0  0  0  0  0  0  0  0  0  0
    9.1479   43.6634   48.8073 H   0  0  0  0  0  0  0  0  0  0  0  0
    8.7916   45.8120   50.0212 H   0  0  0  0  0  0  0  0  0  0  0  0
    6.5638   46.8388   53.4117 H   0  0  0  0  0  0  0  0  0  0  0  0
    7.6157   45.4728   52.9271 H   0  0  0  0  0  0  0  0  0  0  0  0
    7.8699   48.0736   51.9366 H   0  0  0  0  0  0  0  0  0  0  0  0
   10.0366   45.7926   52.6557 H   0  0  0  0  0  0  0  0  0  0  0  0
   10.7341   46.9836   51.9375 H   0  0  0  0  0  0  0  0  0  0  0  0
    9.1329   47.0770   54.7328 H   0  0  0  0  0  0  0  0  0  0  0  0
    9.6724   48.4924   54.3776 H   0  0  0  0  0  0  0  0  0  0  0  0
    4.1925   46.0772   56.3978 H   0  0  0  0  0  0  0  0  0  0  0  0
    5.2592   45.8768   54.9665 H   0  0  0  0  0  0  0  0  0  0  0  0
    3.9844   47.1423   54.9665 H   0  0  0  0  0  0  0  0  0  0  0  0
  1  2  1  0
  2  3  2  0
  3  4  1  0
  4  5  1  0
  5  6  1  0
  6  7  1  0
  7  8  2  0
  7  9  1  0
  9 10  2  0
 10 11  1  0
 10 12  1  0
 12 13  2  0
 13 14  1  0
 14 15  2  0
 15 16  1  0
 16 17  1  0
 17 18  1  0
 18 19  1  0
 19 20  1  0
  5 21  2  0
 21 22  1  0
 21  2  1  0
 15  9  1  0
 20 18  1  0
  1 23  1  0
  1 24  1  0
  1 25  1  0
  4 26  1  0
  6 27  1  0
 12 28  1  0
 13 29  1  0
 14 30  1  0
 17 31  1  0
 17 32  1  0
 18 33  1  0
 19 34  1  0
 19 35  1  0
 20 36  1  0
 20 37  1  0
 22 38  1  0
 22 39  1  0
 22 40  1  0
M  END
>  <meeko>  (334) 
{"is_sidechain": false}

>  <CID>  (334) 
Z3006954377

>  <pose_index>  (334) 
1

>  <docking_score>  (334) 
-8.779

>  <rmsd_to_best_selected>  (334) 
0.0

>  <MWT>  (334) 
319.7919999999997

>  <TPSA>  (334) 
67.01

>  <logP>  (334) 
3.721040000000003

>  <HBD>  (334) 
2

>  <HBA>  (334) 
3

>  <SMILES>  (334) 
[H]c1c([H])c(Cl)c(C(=O)N([H])c2c(C([H])([H])[H])c(C([H])([H])[H])nn2[H])c(OC([H])([H])C2([H])C([H])([H])C2([H])[H])c1[H]

$$$$
Z3006954377_pose5
     RDKit          3D

 40 42  0  0  0  0  0  0  0  0999 V2000
    1.4473   45.7613   56.3036 C   0  0  0  0  0  0  0  0  0  0  0  0
    2.4972   44.9879   55.5941 C   0  0  0  0  0  0  0  0  0  0  0  0
    2.8987   43.8072   56.0815 N   0  0  0  0  0  0  0  0  0  0  0  0
    3.8354   43.4003   55.2105 N   0  0  0  0  0  0  0  0  0  0  0  0
    4.0451   44.2770   54.1791 C   0  0  0  0  0  0  0  0  0  0  0  0
    4.9553   44.0679   53.1628 N   0  0  0  0  0  0  0  0  0  0  0  0
    6.2549   43.6593   53.4157 C   0  0  0  0  0  0  0  0  0  0  0  0
    6.7178   43.4612   54.5365 O   0  0  0  0  0  0  0  0  0  0  0  0
    7.1144   43.4999   52.2141 C   0  0  0  0  0  0  0  0  0  0  0  0
    6.9398   42.4127   51.3457 C   0  0  0  0  0  0  0  0  0  0  0  0
    5.6698   41.2518   51.5209 Cl  0  0  0  0  0  0  0  0  0  0  0  0
    7.7799   42.2605   50.2323 C   0  0  0  0  0  0  0  0  0  0  0  0
    8.7888   43.1880   49.9728 C   0  0  0  0  0  0  0  0  0  0  0  0
    8.9619   44.2763   50.8217 C   0  0  0  0  0  0  0  0  0  0  0  0
    8.1427   44.4213   51.9470 C   0  0  0  0  0  0  0  0  0  0  0  0
    8.3162   45.5248   52.7417 O   0  0  0  0  0  0  0  0  0  0  0  0
    8.6311   46.6994   51.9762 C   0  0  0  0  0  0  0  0  0  0  0  0
    7.6235   47.7634   52.2893 C   0  0  0  0  0  0  0  0  0  0  0  0
    6.1539   47.5301   52.0410 C   0  0  0  0  0  0  0  0  0  0  0  0
    6.9139   48.5081   51.1872 C   0  0  0  0  0  0  0  0  0  0  0  0
    3.1933   45.3399   54.4003 C   0  0  0  0  0  0  0  0  0  0  0  0
    3.0438   46.5671   53.5858 C   0  0  0  0  0  0  0  0  0  0  0  0
    1.3537   45.3914   57.3353 H   0  0  0  0  0  0  0  0  0  0  0  0
    1.7237   46.8259   56.3194 H   0  0  0  0  0  0  0  0  0  0  0  0
    0.4866   45.6396   55.7818 H   0  0  0  0  0  0  0  0  0  0  0  0
    4.3188   42.5176   55.3593 H   0  0  0  0  0  0  0  0  0  0  0  0
    4.6894   44.3248   52.2181 H   0  0  0  0  0  0  0  0  0  0  0  0
    7.6416   41.4023   49.5582 H   0  0  0  0  0  0  0  0  0  0  0  0
    9.4455   43.0593   49.0997 H   0  0  0  0  0  0  0  0  0  0  0  0
    9.7419   45.0221   50.6087 H   0  0  0  0  0  0  0  0  0  0  0  0
    9.6380   47.0543   52.2408 H   0  0  0  0  0  0  0  0  0  0  0  0
    8.6049   46.4640   50.9020 H   0  0  0  0  0  0  0  0  0  0  0  0
    8.2314   48.0550   53.1585 H   0  0  0  0  0  0  0  0  0  0  0  0
    5.8132   46.5757   51.6132 H   0  0  0  0  0  0  0  0  0  0  0  0
    5.2439   47.5791   52.6570 H   0  0  0  0  0  0  0  0  0  0  0  0
    7.1285   48.2686   50.1353 H   0  0  0  0  0  0  0  0  0  0  0  0
    6.7890   49.5680   50.9209 H   0  0  0  0  0  0  0  0  0  0  0  0
    3.1758   47.4511   54.2270 H   0  0  0  0  0  0  0  0  0  0  0  0
    3.8037   46.5742   52.7905 H   0  0  0  0  0  0  0  0  0  0  0  0
    2.0408   46.5878   53.1347 H   0  0  0  0  0  0  0  0  0  0  0  0
  1  2  1  0
  2  3  2  0
  3  4  1  0
  4  5  1  0
  5  6  1  0
  6  7  1  0
  7  8  2  0
  7  9  1  0
  9 10  2  0
 10 11  1  0
 10 12  1  0
 12 13  2  0
 13 14  1  0
 14 15  2  0
 15 16  1  0
 16 17  1  0
 17 18  1  0
 18 19  1  0
 19 20  1  0
  5 21  2  0
 21 22  1  0
 21  2  1  0
 15  9  1  0
 20 18  1  0
  1 23  1  0
  1 24  1  0
  1 25  1  0
  4 26  1  0
  6 27  1  0
 12 28  1  0
 13 29  1  0
 14 30  1  0
 17 31  1  0
 17 32  1  0
 18 33  1  0
 19 34  1  0
 19 35  1  0
 20 36  1  0
 20 37  1  0
 22 38  1  0
 22 39  1  0
 22 40  1  0
M  END
>  <meeko>  (335) 
{"is_sidechain": false}

>  <CID>  (335) 
Z3006954377

>  <pose_index>  (335) 
5

>  <docking_score>  (335) 
-8.171

>  <rmsd_to_best_selected>  (335) 
1.9056279418093396

>  <MWT>  (335) 
319.7919999999997

>  <TPSA>  (335) 
67.01

>  <logP>  (335) 
3.721040000000003

>  <HBD>  (335) 
2

>  <HBA>  (335) 
3

>  <SMILES>  (335) 
[H]c1c([H])c(Cl)c(C(=O)N([H])c2c(C([H])([H])[H])c(C([H])([H])[H])nn2[H])c(OC([H])([H])C2([H])C([H])([H])C2([H])[H])c1[H]

$$$$
Z3006954377_pose6
     RDKit          3D

 40 42  0  0  0  0  0  0  0  0999 V2000
    1.2801   45.8451   56.0512 C   0  0  0  0  0  0  0  0  0  0  0  0
    2.3611   45.0774   55.3819 C   0  0  0  0  0  0  0  0  0  0  0  0
    2.3955   43.7440   55.4909 N   0  0  0  0  0  0  0  0  0  0  0  0
    3.4803   43.3908   54.7820 N   0  0  0  0  0  0  0  0  0  0  0  0
    4.1388   44.4518   54.2193 C   0  0  0  0  0  0  0  0  0  0  0  0
    5.2749   44.3311   53.4455 N   0  0  0  0  0  0  0  0  0  0  0  0
    5.4940   43.2308   52.6323 C   0  0  0  0  0  0  0  0  0  0  0  0
    4.7284   42.2755   52.5303 O   0  0  0  0  0  0  0  0  0  0  0  0
    6.7757   43.2433   51.8798 C   0  0  0  0  0  0  0  0  0  0  0  0
    7.7664   42.2840   52.1322 C   0  0  0  0  0  0  0  0  0  0  0  0
    7.5515   40.9639   53.2289 Cl  0  0  0  0  0  0  0  0  0  0  0  0
    8.9823   42.3292   51.4340 C   0  0  0  0  0  0  0  0  0  0  0  0
    9.2162   43.3188   50.4797 C   0  0  0  0  0  0  0  0  0  0  0  0
    8.2343   44.2680   50.2128 C   0  0  0  0  0  0  0  0  0  0  0  0
    7.0288   44.2430   50.9236 C   0  0  0  0  0  0  0  0  0  0  0  0
    6.0691   45.1695   50.6093 O   0  0  0  0  0  0  0  0  0  0  0  0
    6.6121   46.4955   50.4972 C   0  0  0  0  0  0  0  0  0  0  0  0
    6.6914   47.1012   51.8652 C   0  0  0  0  0  0  0  0  0  0  0  0
    7.0629   48.5518   52.0456 C   0  0  0  0  0  0  0  0  0  0  0  0
    8.0202   47.4729   52.4730 C   0  0  0  0  0  0  0  0  0  0  0  0
    3.4422   45.5810   54.5998 C   0  0  0  0  0  0  0  0  0  0  0  0
    3.7529   46.9914   54.2737 C   0  0  0  0  0  0  0  0  0  0  0  0
    1.6853   46.7951   56.4297 H   0  0  0  0  0  0  0  0  0  0  0  0
    0.4758   46.0511   55.3295 H   0  0  0  0  0  0  0  0  0  0  0  0
    0.8784   45.2576   56.8900 H   0  0  0  0  0  0  0  0  0  0  0  0
    3.7444   42.4110   54.7129 H   0  0  0  0  0  0  0  0  0  0  0  0
    6.0123   45.0174   53.5634 H   0  0  0  0  0  0  0  0  0  0  0  0
    9.7582   41.5775   51.6412 H   0  0  0  0  0  0  0  0  0  0  0  0
   10.1739   43.3488   49.9395 H   0  0  0  0  0  0  0  0  0  0  0  0
    8.4051   45.0366   49.4446 H   0  0  0  0  0  0  0  0  0  0  0  0
    7.6182   46.4470   50.0553 H   0  0  0  0  0  0  0  0  0  0  0  0
    5.9669   47.1106   49.8527 H   0  0  0  0  0  0  0  0  0  0  0  0
    5.8458   46.4683   52.1725 H   0  0  0  0  0  0  0  0  0  0  0  0
    7.2919   49.1740   51.1678 H   0  0  0  0  0  0  0  0  0  0  0  0
    6.5973   49.4180   52.5384 H   0  0  0  0  0  0  0  0  0  0  0  0
    8.9491   47.3067   51.9077 H   0  0  0  0  0  0  0  0  0  0  0  0
    8.5441   47.2244   53.4077 H   0  0  0  0  0  0  0  0  0  0  0  0
    4.7753   47.2274   54.6037 H   0  0  0  0  0  0  0  0  0  0  0  0
    3.6742   47.1424   53.1870 H   0  0  0  0  0  0  0  0  0  0  0  0
    3.0398   47.6524   54.7883 H   0  0  0  0  0  0  0  0  0  0  0  0
  1  2  1  0
  2  3  2  0
  3  4  1  0
  4  5  1  0
  5  6  1  0
  6  7  1  0
  7  8  2  0
  7  9  1  0
  9 10  2  0
 10 11  1  0
 10 12  1  0
 12 13  2  0
 13 14  1  0
 14 15  2  0
 15 16  1  0
 16 17  1  0
 17 18  1  0
 18 19  1  0
 19 20  1  0
  5 21  2  0
 21 22  1  0
 21  2  1  0
 15  9  1  0
 20 18  1  0
  1 23  1  0
  1 24  1  0
  1 25  1  0
  4 26  1  0
  6 27  1  0
 12 28  1  0
 13 29  1  0
 14 30  1  0
 17 31  1  0
 17 32  1  0
 18 33  1  0
 19 34  1  0
 19 35  1  0
 20 36  1  0
 20 37  1  0
 22 38  1  0
 22 39  1  0
 22 40  1  0
M  END
>  <meeko>  (336) 
{"is_sidechain": false}

>  <CID>  (336) 
Z3006954377

>  <pose_index>  (336) 
6

>  <docking_score>  (336) 
-8.111

>  <rmsd_to_best_selected>  (336) 
1.0106369697401345

>  <MWT>  (336) 
319.7919999999997

>  <TPSA>  (336) 
67.01

>  <logP>  (336) 
3.721040000000003

>  <HBD>  (336) 
2

>  <HBA>  (336) 
3

>  <SMILES>  (336) 
[H]c1c([H])c(Cl)c(C(=O)N([H])c2c(C([H])([H])[H])c(C([H])([H])[H])nn2[H])c(OC([H])([H])C2([H])C([H])([H])C2([H])[H])c1[H]

$$$$
Z3006954377_pose8
     RDKit          3D

 40 42  0  0  0  0  0  0  0  0999 V2000
    1.4842   46.2951   55.9371 C   0  0  0  0  0  0  0  0  0  0  0  0
    2.5495   45.4134   55.3965 C   0  0  0  0  0  0  0  0  0  0  0  0
    2.9451   44.3426   56.0958 N   0  0  0  0  0  0  0  0  0  0  0  0
    3.8995   43.7910   55.3285 N   0  0  0  0  0  0  0  0  0  0  0  0
    4.1259   44.4699   54.1603 C   0  0  0  0  0  0  0  0  0  0  0  0
    5.0552   44.0865   53.2156 N   0  0  0  0  0  0  0  0  0  0  0  0
    6.3759   43.8290   53.5479 C   0  0  0  0  0  0  0  0  0  0  0  0
    6.8406   43.9243   54.6801 O   0  0  0  0  0  0  0  0  0  0  0  0
    7.2532   43.4472   52.4106 C   0  0  0  0  0  0  0  0  0  0  0  0
    8.1162   42.3467   52.5075 C   0  0  0  0  0  0  0  0  0  0  0  0
    8.1568   41.2896   53.8752 Cl  0  0  0  0  0  0  0  0  0  0  0  0
    8.9597   42.0184   51.4358 C   0  0  0  0  0  0  0  0  0  0  0  0
    8.9450   42.7755   50.2637 C   0  0  0  0  0  0  0  0  0  0  0  0
    8.0826   43.8614   50.1538 C   0  0  0  0  0  0  0  0  0  0  0  0
    7.2558   44.2083   51.2287 C   0  0  0  0  0  0  0  0  0  0  0  0
    6.3924   45.2618   51.0717 O   0  0  0  0  0  0  0  0  0  0  0  0
    7.0471   46.4239   50.5384 C   0  0  0  0  0  0  0  0  0  0  0  0
    7.5909   47.2353   51.6752 C   0  0  0  0  0  0  0  0  0  0  0  0
    6.8216   47.3661   52.9651 C   0  0  0  0  0  0  0  0  0  0  0  0
    6.9669   48.5545   52.0545 C   0  0  0  0  0  0  0  0  0  0  0  0
    3.2667   45.5491   54.1724 C   0  0  0  0  0  0  0  0  0  0  0  0
    3.1293   46.6101   53.1480 C   0  0  0  0  0  0  0  0  0  0  0  0
    1.9166   47.2701   56.2063 H   0  0  0  0  0  0  0  0  0  0  0  0
    0.7043   46.4379   55.1745 H   0  0  0  0  0  0  0  0  0  0  0  0
    1.0423   45.8306   56.8309 H   0  0  0  0  0  0  0  0  0  0  0  0
    4.3810   42.9520   55.6424 H   0  0  0  0  0  0  0  0  0  0  0  0
    4.7823   44.1005   52.2388 H   0  0  0  0  0  0  0  0  0  0  0  0
    9.6384   41.1569   51.5200 H   0  0  0  0  0  0  0  0  0  0  0  0
    9.6130   42.5145   49.4296 H   0  0  0  0  0  0  0  0  0  0  0  0
    8.0505   44.4469   49.2231 H   0  0  0  0  0  0  0  0  0  0  0  0
    7.8704   46.1142   49.8779 H   0  0  0  0  0  0  0  0  0  0  0  0
    6.3301   47.0246   49.9595 H   0  0  0  0  0  0  0  0  0  0  0  0
    8.6036   46.9046   51.4008 H   0  0  0  0  0  0  0  0  0  0  0  0
    5.8440   46.8737   53.0746 H   0  0  0  0  0  0  0  0  0  0  0  0
    7.0407   47.1672   54.0246 H   0  0  0  0  0  0  0  0  0  0  0  0
    6.0957   48.9307   51.4983 H   0  0  0  0  0  0  0  0  0  0  0  0
    7.3364   49.5838   52.1727 H   0  0  0  0  0  0  0  0  0  0  0  0
    3.2397   47.5957   53.6238 H   0  0  0  0  0  0  0  0  0  0  0  0
    3.9085   46.4833   52.3820 H   0  0  0  0  0  0  0  0  0  0  0  0
    2.1375   46.5392   52.6774 H   0  0  0  0  0  0  0  0  0  0  0  0
  1  2  1  0
  2  3  2  0
  3  4  1  0
  4  5  1  0
  5  6  1  0
  6  7  1  0
  7  8  2  0
  7  9  1  0
  9 10  2  0
 10 11  1  0
 10 12  1  0
 12 13  2  0
 13 14  1  0
 14 15  2  0
 15 16  1  0
 16 17  1  0
 17 18  1  0
 18 19  1  0
 19 20  1  0
  5 21  2  0
 21 22  1  0
 21  2  1  0
 15  9  1  0
 20 18  1  0
  1 23  1  0
  1 24  1  0
  1 25  1  0
  4 26  1  0
  6 27  1  0
 12 28  1  0
 13 29  1  0
 14 30  1  0
 17 31  1  0
 17 32  1  0
 18 33  1  0
 19 34  1  0
 19 35  1  0
 20 36  1  0
 20 37  1  0
 22 38  1  0
 22 39  1  0
 22 40  1  0
M  END
>  <meeko>  (337) 
{"is_sidechain": false}

>  <CID>  (337) 
Z3006954377

>  <pose_index>  (337) 
8

>  <docking_score>  (337) 
-7.708

>  <rmsd_to_best_selected>  (337) 
1.6750296930084951

>  <MWT>  (337) 
319.7919999999997

>  <TPSA>  (337) 
67.01

>  <logP>  (337) 
3.721040000000003

>  <HBD>  (337) 
2

>  <HBA>  (337) 
3

>  <SMILES>  (337) 
[H]c1c([H])c(Cl)c(C(=O)N([H])c2c(C([H])([H])[H])c(C([H])([H])[H])nn2[H])c(OC([H])([H])C2([H])C([H])([H])C2([H])[H])c1[H]

$$$$
Z3006954377_pose10
     RDKit          3D

 40 42  0  0  0  0  0  0  0  0999 V2000
    1.6050   46.3951   55.7559 C   0  0  0  0  0  0  0  0  0  0  0  0
    2.9081   45.7399   55.4755 C   0  0  0  0  0  0  0  0  0  0  0  0
    3.5963   45.1735   56.4749 N   0  0  0  0  0  0  0  0  0  0  0  0
    4.6968   44.6929   55.8758 N   0  0  0  0  0  0  0  0  0  0  0  0
    4.7358   44.9272   54.5267 C   0  0  0  0  0  0  0  0  0  0  0  0
    5.7661   44.5215   53.7033 N   0  0  0  0  0  0  0  0  0  0  0  0
    5.6025   43.5183   52.7621 C   0  0  0  0  0  0  0  0  0  0  0  0
    4.5564   42.8985   52.5791 O   0  0  0  0  0  0  0  0  0  0  0  0
    6.8155   43.1857   51.9700 C   0  0  0  0  0  0  0  0  0  0  0  0
    7.6078   42.0783   52.3029 C   0  0  0  0  0  0  0  0  0  0  0  0
    7.1983   40.9598   53.5556 Cl  0  0  0  0  0  0  0  0  0  0  0  0
    8.7657   41.7963   51.5627 C   0  0  0  0  0  0  0  0  0  0  0  0
    9.1375   42.6062   50.4898 C   0  0  0  0  0  0  0  0  0  0  0  0
    8.3495   43.7000   50.1444 C   0  0  0  0  0  0  0  0  0  0  0  0
    7.2062   44.0000   50.8929 C   0  0  0  0  0  0  0  0  0  0  0  0
    6.4328   45.0634   50.5031 O   0  0  0  0  0  0  0  0  0  0  0  0
    7.0682   46.3231   50.7752 C   0  0  0  0  0  0  0  0  0  0  0  0
    6.3289   47.0064   51.8848 C   0  0  0  0  0  0  0  0  0  0  0  0
    6.2517   48.5109   51.9482 C   0  0  0  0  0  0  0  0  0  0  0  0
    7.0687   47.7579   52.9626 C   0  0  0  0  0  0  0  0  0  0  0  0
    3.5833   45.6247   54.2257 C   0  0  0  0  0  0  0  0  0  0  0  0
    3.1531   46.1385   52.9059 C   0  0  0  0  0  0  0  0  0  0  0  0
    1.7322   47.4876   55.7368 H   0  0  0  0  0  0  0  0  0  0  0  0
    0.8729   46.0978   54.9906 H   0  0  0  0  0  0  0  0  0  0  0  0
    1.2447   46.0852   56.7480 H   0  0  0  0  0  0  0  0  0  0  0  0
    5.4065   44.2146   56.4252 H   0  0  0  0  0  0  0  0  0  0  0  0
    6.6928   44.8977   53.8716 H   0  0  0  0  0  0  0  0  0  0  0  0
    9.3861   40.9284   51.8309 H   0  0  0  0  0  0  0  0  0  0  0  0
   10.0503   42.3812   49.9188 H   0  0  0  0  0  0  0  0  0  0  0  0
    8.6252   44.3277   49.2841 H   0  0  0  0  0  0  0  0  0  0  0  0
    8.1125   46.1532   51.0763 H   0  0  0  0  0  0  0  0  0  0  0  0
    7.0533   46.9522   49.8729 H   0  0  0  0  0  0  0  0  0  0  0  0
    5.5944   46.1876   51.8720 H   0  0  0  0  0  0  0  0  0  0  0  0
    6.7528   49.1199   51.1814 H   0  0  0  0  0  0  0  0  0  0  0  0
    5.4350   49.2460   51.9987 H   0  0  0  0  0  0  0  0  0  0  0  0
    8.1668   47.8166   52.9372 H   0  0  0  0  0  0  0  0  0  0  0  0
    7.0961   47.7148   54.0614 H   0  0  0  0  0  0  0  0  0  0  0  0
    3.7274   47.0439   52.6599 H   0  0  0  0  0  0  0  0  0  0  0  0
    3.3313   45.3713   52.1380 H   0  0  0  0  0  0  0  0  0  0  0  0
    2.0809   46.3821   52.9389 H   0  0  0  0  0  0  0  0  0  0  0  0
  1  2  1  0
  2  3  2  0
  3  4  1  0
  4  5  1  0
  5  6  1  0
  6  7  1  0
  7  8  2  0
  7  9  1  0
  9 10  2  0
 10 11  1  0
 10 12  1  0
 12 13  2  0
 13 14  1  0
 14 15  2  0
 15 16  1  0
 16 17  1  0
 17 18  1  0
 18 19  1  0
 19 20  1  0
  5 21  2  0
 21 22  1  0
 21  2  1  0
 15  9  1  0
 20 18  1  0
  1 23  1  0
  1 24  1  0
  1 25  1  0
  4 26  1  0
  6 27  1  0
 12 28  1  0
 13 29  1  0
 14 30  1  0
 17 31  1  0
 17 32  1  0
 18 33  1  0
 19 34  1  0
 19 35  1  0
 20 36  1  0
 20 37  1  0
 22 38  1  0
 22 39  1  0
 22 40  1  0
M  END
>  <meeko>  (338) 
{"is_sidechain": false}

>  <CID>  (338) 
Z3006954377

>  <pose_index>  (338) 
10

>  <docking_score>  (338) 
-7.537

>  <rmsd_to_best_selected>  (338) 
1.5648866184466088

>  <MWT>  (338) 
319.7919999999997

>  <TPSA>  (338) 
67.01

>  <logP>  (338) 
3.721040000000003

>  <HBD>  (338) 
2

>  <HBA>  (338) 
3

>  <SMILES>  (338) 
[H]c1c([H])c(Cl)c(C(=O)N([H])c2c(C([H])([H])[H])c(C([H])([H])[H])nn2[H])c(OC([H])([H])C2([H])C([H])([H])C2([H])[H])c1[H]

$$$$
Z30167053_pose1
     RDKit          3D

 44 46  0  0  0  0  0  0  0  0999 V2000
    1.5220   42.6640   50.5100 O   0  0  0  0  0  0  0  0  0  0  0  0
    2.1000   42.5620   51.5890 C   0  0  0  0  0  0  0  0  0  0  0  0
    1.5400   43.1440   52.8920 C   0  0  0  0  0  0  0  0  0  0  0  0
    1.4990   44.5610   52.9360 O   0  0  0  0  0  0  0  0  0  0  0  0
    2.6770   45.2310   53.1130 C   0  0  0  0  0  0  0  0  0  0  0  0
    2.8470   46.3400   52.2830 C   0  0  0  0  0  0  0  0  0  0  0  0
    4.0050   47.1200   52.3590 C   0  0  0  0  0  0  0  0  0  0  0  0
    5.0190   46.8180   53.2750 C   0  0  0  0  0  0  0  0  0  0  0  0
    6.1800   47.6090   53.2950 N   0  0  0  0  0  0  0  0  0  0  0  0
    7.5430   47.2940   53.1480 C   0  0  0  0  0  0  0  0  0  0  0  0
    8.4100   47.1150   54.2300 C   0  0  0  0  0  0  0  0  0  0  0  0
    9.7670   46.8410   54.0360 C   0  0  0  0  0  0  0  0  0  0  0  0
   10.2820   46.7500   52.7470 C   0  0  0  0  0  0  0  0  0  0  0  0
    9.4390   46.9310   51.6540 C   0  0  0  0  0  0  0  0  0  0  0  0
    8.0820   47.2040   51.8550 C   0  0  0  0  0  0  0  0  0  0  0  0
    4.8370   45.7070   54.1030 C   0  0  0  0  0  0  0  0  0  0  0  0
    3.6780   44.9220   54.0300 C   0  0  0  0  0  0  0  0  0  0  0  0
    3.3120   41.9110   51.7330 N   0  0  0  0  0  0  0  0  0  0  0  0
    4.0750   41.5010   50.5750 C   0  0  0  0  0  0  0  0  0  0  0  0
    5.2250   42.4430   50.3410 C   0  0  0  0  0  0  0  0  0  0  0  0
    6.3200   42.0440   49.5670 C   0  0  0  0  0  0  0  0  0  0  0  0
    7.3440   42.9490   49.3450 C   0  0  0  0  0  0  0  0  0  0  0  0
    7.3500   44.2100   49.8290 N   0  0  0  0  0  0  0  0  0  0  0  0
    6.2840   44.5790   50.5690 C   0  0  0  0  0  0  0  0  0  0  0  0
    5.2100   43.7460   50.8460 C   0  0  0  0  0  0  0  0  0  0  0  0
    0.5151   42.7668   53.0237 H   0  0  0  0  0  0  0  0  0  0  0  0
    2.2228   42.8268   53.6940 H   0  0  0  0  0  0  0  0  0  0  0  0
    2.0606   46.6036   51.5604 H   0  0  0  0  0  0  0  0  0  0  0  0
    4.1207   47.9843   51.6885 H   0  0  0  0  0  0  0  0  0  0  0  0
    6.0020   48.6020   53.3910 H   0  0  0  0  0  0  0  0  0  0  0  0
    8.0165   47.1913   55.2544 H   0  0  0  0  0  0  0  0  0  0  0  0
   10.4281   46.6972   54.9033 H   0  0  0  0  0  0  0  0  0  0  0  0
   11.3498   46.5361   52.5921 H   0  0  0  0  0  0  0  0  0  0  0  0
    9.8401   46.8593   50.6323 H   0  0  0  0  0  0  0  0  0  0  0  0
    7.4256   47.3507   50.9846 H   0  0  0  0  0  0  0  0  0  0  0  0
    5.6207   45.4427   54.8282 H   0  0  0  0  0  0  0  0  0  0  0  0
    3.5588   44.0580   54.7002 H   0  0  0  0  0  0  0  0  0  0  0  0
    3.8170   42.0070   52.6020 H   0  0  0  0  0  0  0  0  0  0  0  0
    4.4661   40.4862   50.7400 H   0  0  0  0  0  0  0  0  0  0  0  0
    3.4181   41.5155   49.6928 H   0  0  0  0  0  0  0  0  0  0  0  0
    6.3665   41.0302   49.1427 H   0  0  0  0  0  0  0  0  0  0  0  0
    8.2022   42.6222   48.7395 H   0  0  0  0  0  0  0  0  0  0  0  0
    6.2654   45.6005   50.9767 H   0  0  0  0  0  0  0  0  0  0  0  0
    4.3637   44.1037   51.4508 H   0  0  0  0  0  0  0  0  0  0  0  0
  1  2  2  0
  2  3  1  0
  3  4  1  0
  4  5  1  0
  5  6  2  0
  6  7  1  0
  7  8  2  0
  8  9  1  0
  9 10  1  0
 10 11  2  0
 11 12  1  0
 12 13  2  0
 13 14  1  0
 14 15  2  0
  8 16  1  0
 16 17  2  0
  2 18  1  0
 18 19  1  0
 19 20  1  0
 20 21  2  0
 21 22  1  0
 22 23  2  0
 23 24  1  0
 24 25  2  0
 17  5  1  0
 25 20  1  0
 15 10  1  0
  3 26  1  0
  3 27  1  0
  6 28  1  0
  7 29  1  0
  9 30  1  0
 11 31  1  0
 12 32  1  0
 13 33  1  0
 14 34  1  0
 15 35  1  0
 16 36  1  0
 17 37  1  0
 18 38  1  0
 19 39  1  0
 19 40  1  0
 21 41  1  0
 22 42  1  0
 24 43  1  0
 25 44  1  0
M  END
>  <meeko>  (339) 
{"is_sidechain": false}

>  <CID>  (339) 
Z30167053

>  <pose_index>  (339) 
1

>  <docking_score>  (339) 
-8.831

>  <rmsd_to_best_selected>  (339) 
0.0

>  <MWT>  (339) 
333.3909999999997

>  <TPSA>  (339) 
63.25

>  <logP>  (339) 
3.5204000000000013

>  <HBD>  (339) 
2

>  <HBA>  (339) 
4

>  <SMILES>  (339) 
[H]c1nc([H])c([H])c(C([H])([H])N([H])C(=O)C([H])([H])Oc2c([H])c([H])c(N([H])c3c([H])c([H])c([H])c([H])c3[H])c([H])c2[H])c1[H]

$$$$
Z30167053_pose2
     RDKit          3D

 44 46  0  0  0  0  0  0  0  0999 V2000
    1.5334   42.6033   50.5099 O   0  0  0  0  0  0  0  0  0  0  0  0
    2.1128   42.5443   51.5911 C   0  0  0  0  0  0  0  0  0  0  0  0
    1.5413   43.1541   52.8766 C   0  0  0  0  0  0  0  0  0  0  0  0
    1.5071   44.5727   52.8932 O   0  0  0  0  0  0  0  0  0  0  0  0
    2.6855   45.2395   53.0799 C   0  0  0  0  0  0  0  0  0  0  0  0
    2.8301   46.3933   52.3094 C   0  0  0  0  0  0  0  0  0  0  0  0
    3.9850   47.1766   52.4028 C   0  0  0  0  0  0  0  0  0  0  0  0
    5.0210   46.8318   53.2790 C   0  0  0  0  0  0  0  0  0  0  0  0
    6.1777   47.6279   53.3171 N   0  0  0  0  0  0  0  0  0  0  0  0
    7.5332   47.3404   53.0807 C   0  0  0  0  0  0  0  0  0  0  0  0
    8.0828   47.2294   51.7997 C   0  0  0  0  0  0  0  0  0  0  0  0
    9.4289   46.9032   51.6123 C   0  0  0  0  0  0  0  0  0  0  0  0
   10.2491   46.6727   52.7121 C   0  0  0  0  0  0  0  0  0  0  0  0
    9.7222   46.7694   53.9972 C   0  0  0  0  0  0  0  0  0  0  0  0
    8.3761   47.0974   54.1775 C   0  0  0  0  0  0  0  0  0  0  0  0
    4.8643   45.6752   54.0477 C   0  0  0  0  0  0  0  0  0  0  0  0
    3.7073   44.8881   53.9563 C   0  0  0  0  0  0  0  0  0  0  0  0
    3.3369   41.9201   51.7544 N   0  0  0  0  0  0  0  0  0  0  0  0
    4.1074   41.4895   50.6093 C   0  0  0  0  0  0  0  0  0  0  0  0
    5.2287   42.4545   50.3370 C   0  0  0  0  0  0  0  0  0  0  0  0
    5.1835   43.7562   50.8494 C   0  0  0  0  0  0  0  0  0  0  0  0
    6.2498   44.6049   50.6071 C   0  0  0  0  0  0  0  0  0  0  0  0
    7.3478   44.2515   49.9044 N   0  0  0  0  0  0  0  0  0  0  0  0
    7.3761   42.9918   49.4213 C   0  0  0  0  0  0  0  0  0  0  0  0
    6.3588   42.0679   49.6108 C   0  0  0  0  0  0  0  0  0  0  0  0
    0.5130   42.7846   53.0039 H   0  0  0  0  0  0  0  0  0  0  0  0
    2.2135   42.8489   53.6920 H   0  0  0  0  0  0  0  0  0  0  0  0
    2.0261   46.6907   51.6200 H   0  0  0  0  0  0  0  0  0  0  0  0
    4.0808   48.0771   51.7784 H   0  0  0  0  0  0  0  0  0  0  0  0
    5.9981   48.6071   53.5096 H   0  0  0  0  0  0  0  0  0  0  0  0
    7.4429   47.4023   50.9219 H   0  0  0  0  0  0  0  0  0  0  0  0
    9.8400   46.8288   50.5947 H   0  0  0  0  0  0  0  0  0  0  0  0
   11.3087   46.4154   52.5670 H   0  0  0  0  0  0  0  0  0  0  0  0
   10.3657   46.5875   54.8705 H   0  0  0  0  0  0  0  0  0  0  0  0
    7.9691   47.1666   55.1971 H   0  0  0  0  0  0  0  0  0  0  0  0
    5.6657   45.3759   54.7392 H   0  0  0  0  0  0  0  0  0  0  0  0
    3.6072   43.9881   54.5808 H   0  0  0  0  0  0  0  0  0  0  0  0
    3.8393   42.0500   52.6212 H   0  0  0  0  0  0  0  0  0  0  0  0
    4.5278   40.4929   50.8096 H   0  0  0  0  0  0  0  0  0  0  0  0
    3.4478   41.4525   49.7297 H   0  0  0  0  0  0  0  0  0  0  0  0
    4.3167   44.0984   51.4338 H   0  0  0  0  0  0  0  0  0  0  0  0
    6.2001   45.6271   51.0105 H   0  0  0  0  0  0  0  0  0  0  0  0
    8.2580   42.6791   48.8431 H   0  0  0  0  0  0  0  0  0  0  0  0
    6.4398   41.0515   49.1978 H   0  0  0  0  0  0  0  0  0  0  0  0
  1  2  2  0
  2  3  1  0
  3  4  1  0
  4  5  1  0
  5  6  2  0
  6  7  1  0
  7  8  2  0
  8  9  1  0
  9 10  1  0
 10 11  2  0
 11 12  1  0
 12 13  2  0
 13 14  1  0
 14 15  2  0
  8 16  1  0
 16 17  2  0
  2 18  1  0
 18 19  1  0
 19 20  1  0
 20 21  2  0
 21 22  1  0
 22 23  2  0
 23 24  1  0
 24 25  2  0
 17  5  1  0
 25 20  1  0
 15 10  1  0
  3 26  1  0
  3 27  1  0
  6 28  1  0
  7 29  1  0
  9 30  1  0
 11 31  1  0
 12 32  1  0
 13 33  1  0
 14 34  1  0
 15 35  1  0
 16 36  1  0
 17 37  1  0
 18 38  1  0
 19 39  1  0
 19 40  1  0
 21 41  1  0
 22 42  1  0
 24 43  1  0
 25 44  1  0
M  END
>  <meeko>  (340) 
{"is_sidechain": false}

>  <CID>  (340) 
Z30167053

>  <pose_index>  (340) 
2

>  <docking_score>  (340) 
-8.779

>  <rmsd_to_best_selected>  (340) 
0.079212664134785

>  <MWT>  (340) 
333.3909999999997

>  <TPSA>  (340) 
63.25

>  <logP>  (340) 
3.5204000000000013

>  <HBD>  (340) 
2

>  <HBA>  (340) 
4

>  <SMILES>  (340) 
[H]c1nc([H])c([H])c(C([H])([H])N([H])C(=O)C([H])([H])Oc2c([H])c([H])c(N([H])c3c([H])c([H])c([H])c([H])c3[H])c([H])c2[H])c1[H]

$$$$
Z30167053_pose3
     RDKit          3D

 44 46  0  0  0  0  0  0  0  0999 V2000
    0.8693   42.4244   50.7055 O   0  0  0  0  0  0  0  0  0  0  0  0
    1.6930   42.6197   51.5947 C   0  0  0  0  0  0  0  0  0  0  0  0
    1.3809   43.4335   52.8559 C   0  0  0  0  0  0  0  0  0  0  0  0
    2.4866   43.6241   53.7248 O   0  0  0  0  0  0  0  0  0  0  0  0
    3.3589   44.6361   53.4387 C   0  0  0  0  0  0  0  0  0  0  0  0
    4.5590   44.5884   54.1493 C   0  0  0  0  0  0  0  0  0  0  0  0
    5.5465   45.5605   53.9534 C   0  0  0  0  0  0  0  0  0  0  0  0
    5.3621   46.5997   53.0342 C   0  0  0  0  0  0  0  0  0  0  0  0
    6.3643   47.5726   52.8926 N   0  0  0  0  0  0  0  0  0  0  0  0
    7.7179   47.6007   53.2747 C   0  0  0  0  0  0  0  0  0  0  0  0
    8.2235   48.4739   54.2430 C   0  0  0  0  0  0  0  0  0  0  0  0
    9.5840   48.4935   54.5642 C   0  0  0  0  0  0  0  0  0  0  0  0
   10.4660   47.6394   53.9078 C   0  0  0  0  0  0  0  0  0  0  0  0
    9.9863   46.7676   52.9348 C   0  0  0  0  0  0  0  0  0  0  0  0
    8.6241   46.7523   52.6210 C   0  0  0  0  0  0  0  0  0  0  0  0
    4.1564   46.6360   52.3259 C   0  0  0  0  0  0  0  0  0  0  0  0
    3.1658   45.6626   52.5192 C   0  0  0  0  0  0  0  0  0  0  0  0
    2.9837   42.1230   51.5447 N   0  0  0  0  0  0  0  0  0  0  0  0
    3.5016   41.5259   50.3343 C   0  0  0  0  0  0  0  0  0  0  0  0
    4.7674   42.2179   49.9054 C   0  0  0  0  0  0  0  0  0  0  0  0
    5.3021   41.9906   48.6328 C   0  0  0  0  0  0  0  0  0  0  0  0
    6.4492   42.6704   48.2602 C   0  0  0  0  0  0  0  0  0  0  0  0
    7.0880   43.5560   49.0547 N   0  0  0  0  0  0  0  0  0  0  0  0
    6.5563   43.7662   50.2767 C   0  0  0  0  0  0  0  0  0  0  0  0
    5.4114   43.1353   50.7403 C   0  0  0  0  0  0  0  0  0  0  0  0
    1.0151   44.4229   52.5441 H   0  0  0  0  0  0  0  0  0  0  0  0
    0.6351   42.8566   53.4225 H   0  0  0  0  0  0  0  0  0  0  0  0
    4.7308   43.7771   54.8720 H   0  0  0  0  0  0  0  0  0  0  0  0
    6.4815   45.5070   54.5304 H   0  0  0  0  0  0  0  0  0  0  0  0
    6.0710   48.3968   52.3817 H   0  0  0  0  0  0  0  0  0  0  0  0
    7.5370   49.1589   54.7623 H   0  0  0  0  0  0  0  0  0  0  0  0
    9.9575   49.1835   55.3352 H   0  0  0  0  0  0  0  0  0  0  0  0
   11.5373   47.6536   54.1571 H   0  0  0  0  0  0  0  0  0  0  0  0
   10.6788   46.0908   52.4129 H   0  0  0  0  0  0  0  0  0  0  0  0
    8.2560   46.0624   51.8474 H   0  0  0  0  0  0  0  0  0  0  0  0
    3.9816   47.4454   51.6018 H   0  0  0  0  0  0  0  0  0  0  0  0
    2.2312   45.7107   51.9410 H   0  0  0  0  0  0  0  0  0  0  0  0
    3.6611   42.4561   52.2163 H   0  0  0  0  0  0  0  0  0  0  0  0
    3.7147   40.4624   50.5177 H   0  0  0  0  0  0  0  0  0  0  0  0
    2.7512   41.6301   49.5368 H   0  0  0  0  0  0  0  0  0  0  0  0
    4.8199   41.2846   47.9407 H   0  0  0  0  0  0  0  0  0  0  0  0
    6.8640   42.4781   47.2597 H   0  0  0  0  0  0  0  0  0  0  0  0
    7.0605   44.4801   50.9447 H   0  0  0  0  0  0  0  0  0  0  0  0
    5.0184   43.3524   51.7445 H   0  0  0  0  0  0  0  0  0  0  0  0
  1  2  2  0
  2  3  1  0
  3  4  1  0
  4  5  1  0
  5  6  2  0
  6  7  1  0
  7  8  2  0
  8  9  1  0
  9 10  1  0
 10 11  2  0
 11 12  1  0
 12 13  2  0
 13 14  1  0
 14 15  2  0
  8 16  1  0
 16 17  2  0
  2 18  1  0
 18 19  1  0
 19 20  1  0
 20 21  2  0
 21 22  1  0
 22 23  2  0
 23 24  1  0
 24 25  2  0
 17  5  1  0
 25 20  1  0
 15 10  1  0
  3 26  1  0
  3 27  1  0
  6 28  1  0
  7 29  1  0
  9 30  1  0
 11 31  1  0
 12 32  1  0
 13 33  1  0
 14 34  1  0
 15 35  1  0
 16 36  1  0
 17 37  1  0
 18 38  1  0
 19 39  1  0
 19 40  1  0
 21 41  1  0
 22 42  1  0
 24 43  1  0
 25 44  1  0
M  END
>  <meeko>  (341) 
{"is_sidechain": false}

>  <CID>  (341) 
Z30167053

>  <pose_index>  (341) 
3

>  <docking_score>  (341) 
-8.239

>  <rmsd_to_best_selected>  (341) 
1.2551104446955337

>  <MWT>  (341) 
333.3909999999997

>  <TPSA>  (341) 
63.25

>  <logP>  (341) 
3.5204000000000013

>  <HBD>  (341) 
2

>  <HBA>  (341) 
4

>  <SMILES>  (341) 
[H]c1nc([H])c([H])c(C([H])([H])N([H])C(=O)C([H])([H])Oc2c([H])c([H])c(N([H])c3c([H])c([H])c([H])c([H])c3[H])c([H])c2[H])c1[H]

$$$$
Z30167053_pose5
     RDKit          3D

 44 46  0  0  0  0  0  0  0  0999 V2000
    1.7542   41.9666   52.1203 O   0  0  0  0  0  0  0  0  0  0  0  0
    2.1131   43.0216   51.6052 C   0  0  0  0  0  0  0  0  0  0  0  0
    1.5474   44.3857   52.0201 C   0  0  0  0  0  0  0  0  0  0  0  0
    1.6722   44.6808   53.4027 O   0  0  0  0  0  0  0  0  0  0  0  0
    2.8251   45.2770   53.8301 C   0  0  0  0  0  0  0  0  0  0  0  0
    3.9916   44.7608   53.2669 C   0  0  0  0  0  0  0  0  0  0  0  0
    5.2442   45.2808   53.6118 C   0  0  0  0  0  0  0  0  0  0  0  0
    5.3603   46.3387   54.5204 C   0  0  0  0  0  0  0  0  0  0  0  0
    6.6390   46.8081   54.8632 N   0  0  0  0  0  0  0  0  0  0  0  0
    7.7358   47.2200   54.0870 C   0  0  0  0  0  0  0  0  0  0  0  0
    7.8444   48.4981   53.5287 C   0  0  0  0  0  0  0  0  0  0  0  0
    8.9363   48.8517   52.7304 C   0  0  0  0  0  0  0  0  0  0  0  0
    9.9386   47.9230   52.4697 C   0  0  0  0  0  0  0  0  0  0  0  0
    9.8479   46.6418   53.0079 C   0  0  0  0  0  0  0  0  0  0  0  0
    8.7546   46.2957   53.8068 C   0  0  0  0  0  0  0  0  0  0  0  0
    4.1831   46.8504   55.0764 C   0  0  0  0  0  0  0  0  0  0  0  0
    2.9272   46.3318   54.7324 C   0  0  0  0  0  0  0  0  0  0  0  0
    3.0624   43.0833   50.6005 N   0  0  0  0  0  0  0  0  0  0  0  0
    3.5293   41.8795   49.9490 C   0  0  0  0  0  0  0  0  0  0  0  0
    4.9661   42.0320   49.5295 C   0  0  0  0  0  0  0  0  0  0  0  0
    5.7853   42.9865   50.1423 C   0  0  0  0  0  0  0  0  0  0  0  0
    7.1109   43.0744   49.7537 C   0  0  0  0  0  0  0  0  0  0  0  0
    7.6737   42.2820   48.8159 N   0  0  0  0  0  0  0  0  0  0  0  0
    6.8706   41.3641   48.2390 C   0  0  0  0  0  0  0  0  0  0  0  0
    5.5306   41.1987   48.5590 C   0  0  0  0  0  0  0  0  0  0  0  0
    2.0791   45.1644   51.4536 H   0  0  0  0  0  0  0  0  0  0  0  0
    0.4693   44.3552   51.8037 H   0  0  0  0  0  0  0  0  0  0  0  0
    3.9265   43.9351   52.5431 H   0  0  0  0  0  0  0  0  0  0  0  0
    6.1514   44.8515   53.1617 H   0  0  0  0  0  0  0  0  0  0  0  0
    6.7864   46.9095   55.8605 H   0  0  0  0  0  0  0  0  0  0  0  0
    7.0551   49.2395   53.7217 H   0  0  0  0  0  0  0  0  0  0  0  0
    9.0029   49.8652   52.3082 H   0  0  0  0  0  0  0  0  0  0  0  0
   10.7983   48.1992   51.8415 H   0  0  0  0  0  0  0  0  0  0  0  0
   10.6365   45.9025   52.8043 H   0  0  0  0  0  0  0  0  0  0  0  0
    8.6912   45.2798   54.2240 H   0  0  0  0  0  0  0  0  0  0  0  0
    4.2443   47.6775   55.7990 H   0  0  0  0  0  0  0  0  0  0  0  0
    2.0175   46.7606   55.1779 H   0  0  0  0  0  0  0  0  0  0  0  0
    3.1916   43.9522   50.1028 H   0  0  0  0  0  0  0  0  0  0  0  0
    3.4436   41.0335   50.6468 H   0  0  0  0  0  0  0  0  0  0  0  0
    2.9148   41.6970   49.0551 H   0  0  0  0  0  0  0  0  0  0  0  0
    5.3833   43.6545   50.9184 H   0  0  0  0  0  0  0  0  0  0  0  0
    7.7429   43.8340   50.2370 H   0  0  0  0  0  0  0  0  0  0  0  0
    7.3037   40.7081   47.4695 H   0  0  0  0  0  0  0  0  0  0  0  0
    4.9250   40.4280   48.0596 H   0  0  0  0  0  0  0  0  0  0  0  0
  1  2  2  0
  2  3  1  0
  3  4  1  0
  4  5  1  0
  5  6  2  0
  6  7  1  0
  7  8  2  0
  8  9  1  0
  9 10  1  0
 10 11  2  0
 11 12  1  0
 12 13  2  0
 13 14  1  0
 14 15  2  0
  8 16  1  0
 16 17  2  0
  2 18  1  0
 18 19  1  0
 19 20  1  0
 20 21  2  0
 21 22  1  0
 22 23  2  0
 23 24  1  0
 24 25  2  0
 17  5  1  0
 25 20  1  0
 15 10  1  0
  3 26  1  0
  3 27  1  0
  6 28  1  0
  7 29  1  0
  9 30  1  0
 11 31  1  0
 12 32  1  0
 13 33  1  0
 14 34  1  0
 15 35  1  0
 16 36  1  0
 17 37  1  0
 18 38  1  0
 19 39  1  0
 19 40  1  0
 21 41  1  0
 22 42  1  0
 24 43  1  0
 25 44  1  0
M  END
>  <meeko>  (342) 
{"is_sidechain": false}

>  <CID>  (342) 
Z30167053

>  <pose_index>  (342) 
5

>  <docking_score>  (342) 
-8.01

>  <rmsd_to_best_selected>  (342) 
1.9046834827717603

>  <MWT>  (342) 
333.3909999999997

>  <TPSA>  (342) 
63.25

>  <logP>  (342) 
3.5204000000000013

>  <HBD>  (342) 
2

>  <HBA>  (342) 
4

>  <SMILES>  (342) 
[H]c1nc([H])c([H])c(C([H])([H])N([H])C(=O)C([H])([H])Oc2c([H])c([H])c(N([H])c3c([H])c([H])c([H])c([H])c3[H])c([H])c2[H])c1[H]

$$$$
Z30167053_pose7
     RDKit          3D

 44 46  0  0  0  0  0  0  0  0999 V2000
    2.3872   43.6762   48.8763 O   0  0  0  0  0  0  0  0  0  0  0  0
    2.1921   43.3736   50.0501 C   0  0  0  0  0  0  0  0  0  0  0  0
    1.2530   44.1640   50.9696 C   0  0  0  0  0  0  0  0  0  0  0  0
    1.6878   45.4811   51.2661 O   0  0  0  0  0  0  0  0  0  0  0  0
    2.8759   45.6301   51.9246 C   0  0  0  0  0  0  0  0  0  0  0  0
    2.7569   45.8871   53.2912 C   0  0  0  0  0  0  0  0  0  0  0  0
    3.8929   46.0585   54.0895 C   0  0  0  0  0  0  0  0  0  0  0  0
    5.1780   45.9656   53.5424 C   0  0  0  0  0  0  0  0  0  0  0  0
    6.2913   46.1775   54.3735 N   0  0  0  0  0  0  0  0  0  0  0  0
    7.5674   46.7164   54.1293 C   0  0  0  0  0  0  0  0  0  0  0  0
    8.5662   46.0347   53.4282 C   0  0  0  0  0  0  0  0  0  0  0  0
    9.8330   46.5941   53.2423 C   0  0  0  0  0  0  0  0  0  0  0  0
   10.1240   47.8498   53.7677 C   0  0  0  0  0  0  0  0  0  0  0  0
    9.1467   48.5438   54.4760 C   0  0  0  0  0  0  0  0  0  0  0  0
    7.8819   47.9780   54.6565 C   0  0  0  0  0  0  0  0  0  0  0  0
    5.2861   45.7054   52.1729 C   0  0  0  0  0  0  0  0  0  0  0  0
    4.1494   45.5334   51.3701 C   0  0  0  0  0  0  0  0  0  0  0  0
    2.8003   42.2896   50.6581 N   0  0  0  0  0  0  0  0  0  0  0  0
    3.8724   41.5768   49.9998 C   0  0  0  0  0  0  0  0  0  0  0  0
    5.1994   42.2131   50.3154 C   0  0  0  0  0  0  0  0  0  0  0  0
    5.8611   42.9860   49.3552 C   0  0  0  0  0  0  0  0  0  0  0  0
    7.0632   43.5833   49.6925 C   0  0  0  0  0  0  0  0  0  0  0  0
    7.6414   43.4733   50.9084 N   0  0  0  0  0  0  0  0  0  0  0  0
    6.9883   42.7291   51.8237 C   0  0  0  0  0  0  0  0  0  0  0  0
    5.7799   42.0914   51.5815 C   0  0  0  0  0  0  0  0  0  0  0  0
    0.2694   44.2292   50.4813 H   0  0  0  0  0  0  0  0  0  0  0  0
    1.2245   43.6222   51.9265 H   0  0  0  0  0  0  0  0  0  0  0  0
    1.7577   45.9557   53.7462 H   0  0  0  0  0  0  0  0  0  0  0  0
    3.7745   46.2693   55.1626 H   0  0  0  0  0  0  0  0  0  0  0  0
    6.1323   45.9350   55.3446 H   0  0  0  0  0  0  0  0  0  0  0  0
    8.3507   45.0384   53.0148 H   0  0  0  0  0  0  0  0  0  0  0  0
   10.6007   46.0420   52.6803 H   0  0  0  0  0  0  0  0  0  0  0  0
   11.1211   48.2916   53.6241 H   0  0  0  0  0  0  0  0  0  0  0  0
    9.3700   49.5368   54.8932 H   0  0  0  0  0  0  0  0  0  0  0  0
    7.1185   48.5320   55.2225 H   0  0  0  0  0  0  0  0  0  0  0  0
    6.2840   45.6340   51.7156 H   0  0  0  0  0  0  0  0  0  0  0  0
    4.2643   45.3212   50.2969 H   0  0  0  0  0  0  0  0  0  0  0  0
    2.7353   42.1921   51.6614 H   0  0  0  0  0  0  0  0  0  0  0  0
    3.8797   40.5330   50.3467 H   0  0  0  0  0  0  0  0  0  0  0  0
    3.7095   41.6138   48.9126 H   0  0  0  0  0  0  0  0  0  0  0  0
    5.4336   43.1167   48.3501 H   0  0  0  0  0  0  0  0  0  0  0  0
    7.5774   44.1821   48.9264 H   0  0  0  0  0  0  0  0  0  0  0  0
    7.4399   42.6212   52.8209 H   0  0  0  0  0  0  0  0  0  0  0  0
    5.2886   41.5020   52.3697 H   0  0  0  0  0  0  0  0  0  0  0  0
  1  2  2  0
  2  3  1  0
  3  4  1  0
  4  5  1  0
  5  6  2  0
  6  7  1  0
  7  8  2  0
  8  9  1  0
  9 10  1  0
 10 11  2  0
 11 12  1  0
 12 13  2  0
 13 14  1  0
 14 15  2  0
  8 16  1  0
 16 17  2  0
  2 18  1  0
 18 19  1  0
 19 20  1  0
 20 21  2  0
 21 22  1  0
 22 23  2  0
 23 24  1  0
 24 25  2  0
 17  5  1  0
 25 20  1  0
 15 10  1  0
  3 26  1  0
  3 27  1  0
  6 28  1  0
  7 29  1  0
  9 30  1  0
 11 31  1  0
 12 32  1  0
 13 33  1  0
 14 34  1  0
 15 35  1  0
 16 36  1  0
 17 37  1  0
 18 38  1  0
 19 39  1  0
 19 40  1  0
 21 41  1  0
 22 42  1  0
 24 43  1  0
 25 44  1  0
M  END
>  <meeko>  (343) 
{"is_sidechain": false}

>  <CID>  (343) 
Z30167053

>  <pose_index>  (343) 
7

>  <docking_score>  (343) 
-7.903

>  <rmsd_to_best_selected>  (343) 
1.6664892180361026

>  <MWT>  (343) 
333.3909999999997

>  <TPSA>  (343) 
63.25

>  <logP>  (343) 
3.5204000000000013

>  <HBD>  (343) 
2

>  <HBA>  (343) 
4

>  <SMILES>  (343) 
[H]c1nc([H])c([H])c(C([H])([H])N([H])C(=O)C([H])([H])Oc2c([H])c([H])c(N([H])c3c([H])c([H])c([H])c([H])c3[H])c([H])c2[H])c1[H]

$$$$
Z3071600379_pose1
     RDKit          3D

 39 41  0  0  0  0  0  0  0  0999 V2000
    7.7860   44.7680   49.6490 O   0  0  0  0  0  0  0  0  0  0  0  0
    7.0250   43.8310   49.8560 C   0  0  0  0  0  0  0  0  0  0  0  0
    7.2380   42.5830   49.3270 N   0  0  0  0  0  0  0  0  0  0  0  0
    6.3990   41.5310   49.5520 C   0  0  0  0  0  0  0  0  0  0  0  0
    5.3340   41.5950   50.2750 N   0  0  0  0  0  0  0  0  0  0  0  0
    5.0260   42.8310   50.8670 C   0  0  0  0  0  0  0  0  0  0  0  0
    3.8880   42.9370   51.6650 C   0  0  0  0  0  0  0  0  0  0  0  0
    3.5450   44.1560   52.2600 C   0  0  0  0  0  0  0  0  0  0  0  0
    4.3270   45.2930   52.0450 C   0  0  0  0  0  0  0  0  0  0  0  0
    4.0300   46.5470   52.6450 N   0  0  0  0  0  0  0  0  0  0  0  0
    4.2170   46.8430   54.2830 S   0  0  0  0  0  0  0  0  0  0  0  0
    4.3330   48.2610   54.5410 O   0  0  0  0  0  0  0  0  0  0  0  0
    3.1640   46.0750   54.9180 O   0  0  0  0  0  0  0  0  0  0  0  0
    5.7510   46.0350   54.7160 C   0  0  0  0  0  0  0  0  0  0  0  0
    6.9820   46.8760   54.4470 C   0  0  0  0  0  0  0  0  0  0  0  0
    6.8090   47.5790   53.2150 O   0  0  0  0  0  0  0  0  0  0  0  0
    8.0250   47.7110   52.4720 C   0  0  0  0  0  0  0  0  0  0  0  0
    8.9270   46.5490   52.7420 C   0  0  0  0  0  0  0  0  0  0  0  0
   10.1850   46.3730   51.9280 C   0  0  0  0  0  0  0  0  0  0  0  0
   10.2790   46.7390   53.3830 C   0  0  0  0  0  0  0  0  0  0  0  0
    5.4870   45.1930   51.2780 C   0  0  0  0  0  0  0  0  0  0  0  0
    5.8200   43.9680   50.6910 C   0  0  0  0  0  0  0  0  0  0  0  0
    8.0630   42.4750   48.7550 H   0  0  0  0  0  0  0  0  0  0  0  0
    6.6475   40.5659   49.0863 H   0  0  0  0  0  0  0  0  0  0  0  0
    3.2534   42.0535   51.8286 H   0  0  0  0  0  0  0  0  0  0  0  0
    2.6536   44.2193   52.9013 H   0  0  0  0  0  0  0  0  0  0  0  0
    3.2830   47.1050   52.2300 H   0  0  0  0  0  0  0  0  0  0  0  0
    5.7244   45.7922   55.7885 H   0  0  0  0  0  0  0  0  0  0  0  0
    5.8308   45.1387   54.0834 H   0  0  0  0  0  0  0  0  0  0  0  0
    7.1214   47.5971   55.2659 H   0  0  0  0  0  0  0  0  0  0  0  0
    7.8671   46.2262   54.3813 H   0  0  0  0  0  0  0  0  0  0  0  0
    7.7917   47.7473   51.3976 H   0  0  0  0  0  0  0  0  0  0  0  0
    8.5330   48.6372   52.7788 H   0  0  0  0  0  0  0  0  0  0  0  0
    8.0449   45.9337   52.9729 H   0  0  0  0  0  0  0  0  0  0  0  0
   10.4871   45.3698   51.5929 H   0  0  0  0  0  0  0  0  0  0  0  0
   10.5715   46.8025   50.9920 H   0  0  0  0  0  0  0  0  0  0  0  0
   10.6499   46.0034   54.1119 H   0  0  0  0  0  0  0  0  0  0  0  0
   10.7629   47.5470   53.9513 H   0  0  0  0  0  0  0  0  0  0  0  0
    6.1350   46.0704   51.1357 H   0  0  0  0  0  0  0  0  0  0  0  0
  1  2  2  0
  2  3  1  0
  3  4  1  0
  4  5  2  0
  5  6  1  0
  6  7  2  0
  7  8  1  0
  8  9  2  0
  9 10  1  0
 10 11  1  0
 11 12  2  0
 11 13  2  0
 11 14  1  0
 14 15  1  0
 15 16  1  0
 16 17  1  0
 17 18  1  0
 18 19  1  0
 19 20  1  0
  9 21  1  0
 21 22  2  0
 22  2  1  0
 22  6  1  0
 20 18  1  0
  3 23  1  0
  4 24  1  0
  7 25  1  0
  8 26  1  0
 10 27  1  0
 14 28  1  0
 14 29  1  0
 15 30  1  0
 15 31  1  0
 17 32  1  0
 17 33  1  0
 18 34  1  0
 19 35  1  0
 19 36  1  0
 20 37  1  0
 20 38  1  0
 21 39  1  0
M  END
>  <meeko>  (344) 
{"is_sidechain": false}

>  <CID>  (344) 
Z3071600379

>  <pose_index>  (344) 
1

>  <docking_score>  (344) 
-8.112

>  <rmsd_to_best_selected>  (344) 
0.0

>  <MWT>  (344) 
323.37399999999974

>  <TPSA>  (344) 
101.14999999999999

>  <logP>  (344) 
1.0913999999999995

>  <HBD>  (344) 
2

>  <HBA>  (344) 
5

>  <SMILES>  (344) 
[H]c1c(N([H])S(=O)(=O)C([H])([H])C([H])([H])OC([H])([H])C2([H])C([H])([H])C2([H])[H])c([H])c2c(=O)n([H])c([H])nc2c1[H]

$$$$
Z3071600379_pose4
     RDKit          3D

 39 41  0  0  0  0  0  0  0  0999 V2000
    7.9517   42.7754   51.7445 O   0  0  0  0  0  0  0  0  0  0  0  0
    7.1000   42.6780   50.8709 C   0  0  0  0  0  0  0  0  0  0  0  0
    7.0086   41.5777   50.0554 N   0  0  0  0  0  0  0  0  0  0  0  0
    6.0623   41.4548   49.0804 C   0  0  0  0  0  0  0  0  0  0  0  0
    5.1668   42.3456   48.8249 N   0  0  0  0  0  0  0  0  0  0  0  0
    5.1703   43.5134   49.6056 C   0  0  0  0  0  0  0  0  0  0  0  0
    4.2091   44.4930   49.3658 C   0  0  0  0  0  0  0  0  0  0  0  0
    4.1919   45.6739   50.1186 C   0  0  0  0  0  0  0  0  0  0  0  0
    5.1523   45.8966   51.1067 C   0  0  0  0  0  0  0  0  0  0  0  0
    5.1611   47.0700   51.9100 N   0  0  0  0  0  0  0  0  0  0  0  0
    4.0359   47.3598   53.1160 S   0  0  0  0  0  0  0  0  0  0  0  0
    3.0192   48.2822   52.6617 O   0  0  0  0  0  0  0  0  0  0  0  0
    3.6604   46.0428   53.5916 O   0  0  0  0  0  0  0  0  0  0  0  0
    4.9733   48.1154   54.4373 C   0  0  0  0  0  0  0  0  0  0  0  0
    6.1695   47.2979   54.8810 C   0  0  0  0  0  0  0  0  0  0  0  0
    7.1715   47.3398   53.8627 O   0  0  0  0  0  0  0  0  0  0  0  0
    8.4527   46.9010   54.3217 C   0  0  0  0  0  0  0  0  0  0  0  0
    8.8823   45.6788   53.5747 C   0  0  0  0  0  0  0  0  0  0  0  0
   10.2628   45.6165   52.9702 C   0  0  0  0  0  0  0  0  0  0  0  0
    9.9177   44.7391   54.1406 C   0  0  0  0  0  0  0  0  0  0  0  0
    6.0968   44.9088   51.3817 C   0  0  0  0  0  0  0  0  0  0  0  0
    6.1017   43.7323   50.6246 C   0  0  0  0  0  0  0  0  0  0  0  0
    7.6850   40.8446   50.2165 H   0  0  0  0  0  0  0  0  0  0  0  0
    6.0638   40.5371   48.4739 H   0  0  0  0  0  0  0  0  0  0  0  0
    3.4571   44.3376   48.5782 H   0  0  0  0  0  0  0  0  0  0  0  0
    3.4163   46.4309   49.9299 H   0  0  0  0  0  0  0  0  0  0  0  0
    5.5099   47.9303   51.4868 H   0  0  0  0  0  0  0  0  0  0  0  0
    5.3320   49.0961   54.0916 H   0  0  0  0  0  0  0  0  0  0  0  0
    4.3001   48.1957   55.3035 H   0  0  0  0  0  0  0  0  0  0  0  0
    6.5754   47.7163   55.8139 H   0  0  0  0  0  0  0  0  0  0  0  0
    5.8616   46.2561   55.0537 H   0  0  0  0  0  0  0  0  0  0  0  0
    9.1893   47.7019   54.1609 H   0  0  0  0  0  0  0  0  0  0  0  0
    8.3851   46.6597   55.3928 H   0  0  0  0  0  0  0  0  0  0  0  0
    7.8537   45.5590   53.2038 H   0  0  0  0  0  0  0  0  0  0  0  0
   10.4072   45.1726   51.9741 H   0  0  0  0  0  0  0  0  0  0  0  0
   11.0517   46.3529   52.7569 H   0  0  0  0  0  0  0  0  0  0  0  0
    9.8096   43.6534   54.0006 H   0  0  0  0  0  0  0  0  0  0  0  0
   10.3496   44.5680   55.1377 H   0  0  0  0  0  0  0  0  0  0  0  0
    6.8319   45.0531   52.1872 H   0  0  0  0  0  0  0  0  0  0  0  0
  1  2  2  0
  2  3  1  0
  3  4  1  0
  4  5  2  0
  5  6  1  0
  6  7  2  0
  7  8  1  0
  8  9  2  0
  9 10  1  0
 10 11  1  0
 11 12  2  0
 11 13  2  0
 11 14  1  0
 14 15  1  0
 15 16  1  0
 16 17  1  0
 17 18  1  0
 18 19  1  0
 19 20  1  0
  9 21  1  0
 21 22  2  0
 22  2  1  0
 22  6  1  0
 20 18  1  0
  3 23  1  0
  4 24  1  0
  7 25  1  0
  8 26  1  0
 10 27  1  0
 14 28  1  0
 14 29  1  0
 15 30  1  0
 15 31  1  0
 17 32  1  0
 17 33  1  0
 18 34  1  0
 19 35  1  0
 19 36  1  0
 20 37  1  0
 20 38  1  0
 21 39  1  0
M  END
>  <meeko>  (345) 
{"is_sidechain": false}

>  <CID>  (345) 
Z3071600379

>  <pose_index>  (345) 
4

>  <docking_score>  (345) 
-7.565

>  <rmsd_to_best_selected>  (345) 
1.374102442242482

>  <MWT>  (345) 
323.37399999999974

>  <TPSA>  (345) 
101.14999999999999

>  <logP>  (345) 
1.0913999999999995

>  <HBD>  (345) 
2

>  <HBA>  (345) 
5

>  <SMILES>  (345) 
[H]c1c(N([H])S(=O)(=O)C([H])([H])C([H])([H])OC([H])([H])C2([H])C([H])([H])C2([H])[H])c([H])c2c(=O)n([H])c([H])nc2c1[H]

$$$$
Z3071600379_pose5
     RDKit          3D

 39 41  0  0  0  0  0  0  0  0999 V2000
    8.4184   43.2115   51.0813 O   0  0  0  0  0  0  0  0  0  0  0  0
    7.4795   43.1584   50.2969 C   0  0  0  0  0  0  0  0  0  0  0  0
    7.5857   42.5583   49.0673 N   0  0  0  0  0  0  0  0  0  0  0  0
    6.5474   42.4895   48.1849 C   0  0  0  0  0  0  0  0  0  0  0  0
    5.3740   42.9729   48.4083 N   0  0  0  0  0  0  0  0  0  0  0  0
    5.1589   43.6078   49.6430 C   0  0  0  0  0  0  0  0  0  0  0  0
    3.8982   44.1327   49.9264 C   0  0  0  0  0  0  0  0  0  0  0  0
    3.6531   44.7818   51.1417 C   0  0  0  0  0  0  0  0  0  0  0  0
    4.6741   44.9334   52.0815 C   0  0  0  0  0  0  0  0  0  0  0  0
    4.4656   45.5644   53.3386 N   0  0  0  0  0  0  0  0  0  0  0  0
    4.3316   47.2242   53.5153 S   0  0  0  0  0  0  0  0  0  0  0  0
    3.3335   47.7599   52.6143 O   0  0  0  0  0  0  0  0  0  0  0  0
    4.2029   47.4327   54.9439 O   0  0  0  0  0  0  0  0  0  0  0  0
    5.9392   47.8602   53.0630 C   0  0  0  0  0  0  0  0  0  0  0  0
    6.6119   48.6562   54.1630 C   0  0  0  0  0  0  0  0  0  0  0  0
    7.7208   47.9111   54.6707 O   0  0  0  0  0  0  0  0  0  0  0  0
    8.2295   46.9593   53.7331 C   0  0  0  0  0  0  0  0  0  0  0  0
    9.1113   45.9684   54.4246 C   0  0  0  0  0  0  0  0  0  0  0  0
    8.6435   44.5455   54.6017 C   0  0  0  0  0  0  0  0  0  0  0  0
    9.7784   44.8497   53.6646 C   0  0  0  0  0  0  0  0  0  0  0  0
    5.9293   44.3801   51.8272 C   0  0  0  0  0  0  0  0  0  0  0  0
    6.1603   43.7321   50.6103 C   0  0  0  0  0  0  0  0  0  0  0  0
    8.4845   42.1574   48.8416 H   0  0  0  0  0  0  0  0  0  0  0  0
    6.7232   41.9893   47.2211 H   0  0  0  0  0  0  0  0  0  0  0  0
    3.0889   44.0355   49.1878 H   0  0  0  0  0  0  0  0  0  0  0  0
    2.6489   45.1753   51.3579 H   0  0  0  0  0  0  0  0  0  0  0  0
    4.8609   45.1144   54.1649 H   0  0  0  0  0  0  0  0  0  0  0  0
    6.5878   47.0107   52.8029 H   0  0  0  0  0  0  0  0  0  0  0  0
    5.7865   48.5468   52.2173 H   0  0  0  0  0  0  0  0  0  0  0  0
    6.9673   49.6153   53.7584 H   0  0  0  0  0  0  0  0  0  0  0  0
    5.8931   48.8478   54.9733 H   0  0  0  0  0  0  0  0  0  0  0  0
    7.3887   46.4296   53.2616 H   0  0  0  0  0  0  0  0  0  0  0  0
    8.8175   47.4891   52.9692 H   0  0  0  0  0  0  0  0  0  0  0  0
    9.4692   46.7689   55.0889 H   0  0  0  0  0  0  0  0  0  0  0  0
    8.8375   44.0167   55.5466 H   0  0  0  0  0  0  0  0  0  0  0  0
    7.6773   44.0280   54.5099 H   0  0  0  0  0  0  0  0  0  0  0  0
   10.8026   44.5433   53.9240 H   0  0  0  0  0  0  0  0  0  0  0  0
    9.9858   44.6467   52.6036 H   0  0  0  0  0  0  0  0  0  0  0  0
    6.7302   44.4532   52.5777 H   0  0  0  0  0  0  0  0  0  0  0  0
  1  2  2  0
  2  3  1  0
  3  4  1  0
  4  5  2  0
  5  6  1  0
  6  7  2  0
  7  8  1  0
  8  9  2  0
  9 10  1  0
 10 11  1  0
 11 12  2  0
 11 13  2  0
 11 14  1  0
 14 15  1  0
 15 16  1  0
 16 17  1  0
 17 18  1  0
 18 19  1  0
 19 20  1  0
  9 21  1  0
 21 22  2  0
 22  2  1  0
 22  6  1  0
 20 18  1  0
  3 23  1  0
  4 24  1  0
  7 25  1  0
  8 26  1  0
 10 27  1  0
 14 28  1  0
 14 29  1  0
 15 30  1  0
 15 31  1  0
 17 32  1  0
 17 33  1  0
 18 34  1  0
 19 35  1  0
 19 36  1  0
 20 37  1  0
 20 38  1  0
 21 39  1  0
M  END
>  <meeko>  (346) 
{"is_sidechain": false}

>  <CID>  (346) 
Z3071600379

>  <pose_index>  (346) 
5

>  <docking_score>  (346) 
-7.431

>  <rmsd_to_best_selected>  (346) 
1.8154406398066698

>  <MWT>  (346) 
323.37399999999974

>  <TPSA>  (346) 
101.14999999999999

>  <logP>  (346) 
1.0913999999999995

>  <HBD>  (346) 
2

>  <HBA>  (346) 
5

>  <SMILES>  (346) 
[H]c1c(N([H])S(=O)(=O)C([H])([H])C([H])([H])OC([H])([H])C2([H])C([H])([H])C2([H])[H])c([H])c2c(=O)n([H])c([H])nc2c1[H]

$$$$
Z3071600379_pose6
     RDKit          3D

 39 41  0  0  0  0  0  0  0  0999 V2000
    7.2258   41.6624   51.6942 O   0  0  0  0  0  0  0  0  0  0  0  0
    6.6145   41.9527   50.6735 C   0  0  0  0  0  0  0  0  0  0  0  0
    6.4710   41.0725   49.6302 N   0  0  0  0  0  0  0  0  0  0  0  0
    5.7893   41.3823   48.4899 C   0  0  0  0  0  0  0  0  0  0  0  0
    5.2176   42.5166   48.2731 N   0  0  0  0  0  0  0  0  0  0  0  0
    5.3031   43.4893   49.2818 C   0  0  0  0  0  0  0  0  0  0  0  0
    4.6852   44.7238   49.0894 C   0  0  0  0  0  0  0  0  0  0  0  0
    4.7606   45.7196   50.0695 C   0  0  0  0  0  0  0  0  0  0  0  0
    5.4761   45.4991   51.2490 C   0  0  0  0  0  0  0  0  0  0  0  0
    5.5618   46.4729   52.2811 N   0  0  0  0  0  0  0  0  0  0  0  0
    4.5858   46.4494   53.6424 S   0  0  0  0  0  0  0  0  0  0  0  0
    3.1919   46.3324   53.2749 O   0  0  0  0  0  0  0  0  0  0  0  0
    5.1920   45.4606   54.5117 O   0  0  0  0  0  0  0  0  0  0  0  0
    4.8619   48.0330   54.4235 C   0  0  0  0  0  0  0  0  0  0  0  0
    6.2419   48.1813   55.0319 C   0  0  0  0  0  0  0  0  0  0  0  0
    7.2274   47.9490   54.0235 O   0  0  0  0  0  0  0  0  0  0  0  0
    8.4427   47.4043   54.5459 C   0  0  0  0  0  0  0  0  0  0  0  0
    9.1732   46.6507   53.4812 C   0  0  0  0  0  0  0  0  0  0  0  0
   10.2774   45.6961   53.8624 C   0  0  0  0  0  0  0  0  0  0  0  0
    8.9870   45.1646   53.3058 C   0  0  0  0  0  0  0  0  0  0  0  0
    6.0668   44.2565   51.4705 C   0  0  0  0  0  0  0  0  0  0  0  0
    5.9820   43.2680   50.4842 C   0  0  0  0  0  0  0  0  0  0  0  0
    6.8971   40.1645   49.7494 H   0  0  0  0  0  0  0  0  0  0  0  0
    5.7233   40.6145   47.7050 H   0  0  0  0  0  0  0  0  0  0  0  0
    4.1329   44.9172   48.1580 H   0  0  0  0  0  0  0  0  0  0  0  0
    4.2531   46.6824   49.9102 H   0  0  0  0  0  0  0  0  0  0  0  0
    5.8424   47.4180   52.0182 H   0  0  0  0  0  0  0  0  0  0  0  0
    4.7296   48.8207   53.6672 H   0  0  0  0  0  0  0  0  0  0  0  0
    4.1375   48.1151   55.2472 H   0  0  0  0  0  0  0  0  0  0  0  0
    6.3594   49.1985   55.4338 H   0  0  0  0  0  0  0  0  0  0  0  0
    6.3671   47.4522   55.8460 H   0  0  0  0  0  0  0  0  0  0  0  0
    9.0791   48.2231   54.9127 H   0  0  0  0  0  0  0  0  0  0  0  0
    8.2015   46.7166   55.3698 H   0  0  0  0  0  0  0  0  0  0  0  0
    9.0794   47.5226   52.8172 H   0  0  0  0  0  0  0  0  0  0  0  0
   11.1965   45.6499   53.2598 H   0  0  0  0  0  0  0  0  0  0  0  0
   10.8652   45.5117   54.7738 H   0  0  0  0  0  0  0  0  0  0  0  0
    8.9621   44.7293   52.2959 H   0  0  0  0  0  0  0  0  0  0  0  0
    8.2401   44.4302   53.6414 H   0  0  0  0  0  0  0  0  0  0  0  0
    6.5958   44.0544   52.4136 H   0  0  0  0  0  0  0  0  0  0  0  0
  1  2  2  0
  2  3  1  0
  3  4  1  0
  4  5  2  0
  5  6  1  0
  6  7  2  0
  7  8  1  0
  8  9  2  0
  9 10  1  0
 10 11  1  0
 11 12  2  0
 11 13  2  0
 11 14  1  0
 14 15  1  0
 15 16  1  0
 16 17  1  0
 17 18  1  0
 18 19  1  0
 19 20  1  0
  9 21  1  0
 21 22  2  0
 22  2  1  0
 22  6  1  0
 20 18  1  0
  3 23  1  0
  4 24  1  0
  7 25  1  0
  8 26  1  0
 10 27  1  0
 14 28  1  0
 14 29  1  0
 15 30  1  0
 15 31  1  0
 17 32  1  0
 17 33  1  0
 18 34  1  0
 19 35  1  0
 19 36  1  0
 20 37  1  0
 20 38  1  0
 21 39  1  0
M  END
>  <meeko>  (347) 
{"is_sidechain": false}

>  <CID>  (347) 
Z3071600379

>  <pose_index>  (347) 
6

>  <docking_score>  (347) 
-7.376

>  <rmsd_to_best_selected>  (347) 
1.9180025591685406

>  <MWT>  (347) 
323.37399999999974

>  <TPSA>  (347) 
101.14999999999999

>  <logP>  (347) 
1.0913999999999995

>  <HBD>  (347) 
2

>  <HBA>  (347) 
5

>  <SMILES>  (347) 
[H]c1c(N([H])S(=O)(=O)C([H])([H])C([H])([H])OC([H])([H])C2([H])C([H])([H])C2([H])[H])c([H])c2c(=O)n([H])c([H])nc2c1[H]

$$$$
Z3071600379_pose7
     RDKit          3D

 39 41  0  0  0  0  0  0  0  0999 V2000
    8.4199   43.5729   50.9474 O   0  0  0  0  0  0  0  0  0  0  0  0
    7.4330   43.2271   50.3094 C   0  0  0  0  0  0  0  0  0  0  0  0
    7.4905   42.2557   49.3420 N   0  0  0  0  0  0  0  0  0  0  0  0
    6.3985   41.8586   48.6274 C   0  0  0  0  0  0  0  0  0  0  0  0
    5.2153   42.3459   48.7807 N   0  0  0  0  0  0  0  0  0  0  0  0
    5.0482   43.3475   49.7511 C   0  0  0  0  0  0  0  0  0  0  0  0
    3.7798   43.8907   49.9540 C   0  0  0  0  0  0  0  0  0  0  0  0
    3.5807   44.8981   50.9054 C   0  0  0  0  0  0  0  0  0  0  0  0
    4.6540   45.3920   51.6495 C   0  0  0  0  0  0  0  0  0  0  0  0
    4.4957   46.3990   52.6402 N   0  0  0  0  0  0  0  0  0  0  0  0
    4.8307   48.0163   52.3613 S   0  0  0  0  0  0  0  0  0  0  0  0
    5.0294   48.2659   50.9503 O   0  0  0  0  0  0  0  0  0  0  0  0
    3.8025   48.7351   53.0864 O   0  0  0  0  0  0  0  0  0  0  0  0
    6.3589   48.3187   53.2374 C   0  0  0  0  0  0  0  0  0  0  0  0
    6.2940   47.9807   54.7130 C   0  0  0  0  0  0  0  0  0  0  0  0
    6.4718   46.5735   54.8811 O   0  0  0  0  0  0  0  0  0  0  0  0
    7.8328   46.2074   55.1248 C   0  0  0  0  0  0  0  0  0  0  0  0
    8.3447   45.3436   54.0172 C   0  0  0  0  0  0  0  0  0  0  0  0
    9.7045   45.6159   53.4225 C   0  0  0  0  0  0  0  0  0  0  0  0
    9.4793   44.3749   54.2393 C   0  0  0  0  0  0  0  0  0  0  0  0
    5.9201   44.8324   51.4813 C   0  0  0  0  0  0  0  0  0  0  0  0
    6.1053   43.8237   50.5304 C   0  0  0  0  0  0  0  0  0  0  0  0
    8.3941   41.8351   49.1832 H   0  0  0  0  0  0  0  0  0  0  0  0
    6.5367   41.0715   47.8715 H   0  0  0  0  0  0  0  0  0  0  0  0
    2.9285   43.5244   49.3614 H   0  0  0  0  0  0  0  0  0  0  0  0
    2.5712   45.3037   51.0679 H   0  0  0  0  0  0  0  0  0  0  0  0
    4.6434   46.1317   53.6139 H   0  0  0  0  0  0  0  0  0  0  0  0
    7.1497   47.7089   52.7763 H   0  0  0  0  0  0  0  0  0  0  0  0
    6.5627   49.3971   53.1640 H   0  0  0  0  0  0  0  0  0  0  0  0
    7.0898   48.5187   55.2490 H   0  0  0  0  0  0  0  0  0  0  0  0
    5.3162   48.2805   55.1180 H   0  0  0  0  0  0  0  0  0  0  0  0
    8.4474   47.1175   55.1888 H   0  0  0  0  0  0  0  0  0  0  0  0
    7.8886   45.6474   56.0700 H   0  0  0  0  0  0  0  0  0  0  0  0
    7.3189   45.2529   53.6306 H   0  0  0  0  0  0  0  0  0  0  0  0
    9.8545   45.5389   52.3355 H   0  0  0  0  0  0  0  0  0  0  0  0
   10.4163   46.4536   53.4618 H   0  0  0  0  0  0  0  0  0  0  0  0
    9.4648   43.3899   53.7498 H   0  0  0  0  0  0  0  0  0  0  0  0
    9.9585   43.9291   55.1234 H   0  0  0  0  0  0  0  0  0  0  0  0
    6.7663   45.1816   52.0913 H   0  0  0  0  0  0  0  0  0  0  0  0
  1  2  2  0
  2  3  1  0
  3  4  1  0
  4  5  2  0
  5  6  1  0
  6  7  2  0
  7  8  1  0
  8  9  2  0
  9 10  1  0
 10 11  1  0
 11 12  2  0
 11 13  2  0
 11 14  1  0
 14 15  1  0
 15 16  1  0
 16 17  1  0
 17 18  1  0
 18 19  1  0
 19 20  1  0
  9 21  1  0
 21 22  2  0
 22  2  1  0
 22  6  1  0
 20 18  1  0
  3 23  1  0
  4 24  1  0
  7 25  1  0
  8 26  1  0
 10 27  1  0
 14 28  1  0
 14 29  1  0
 15 30  1  0
 15 31  1  0
 17 32  1  0
 17 33  1  0
 18 34  1  0
 19 35  1  0
 19 36  1  0
 20 37  1  0
 20 38  1  0
 21 39  1  0
M  END
>  <meeko>  (348) 
{"is_sidechain": false}

>  <CID>  (348) 
Z3071600379

>  <pose_index>  (348) 
7

>  <docking_score>  (348) 
-7.352

>  <rmsd_to_best_selected>  (348) 
1.764037626626674

>  <MWT>  (348) 
323.37399999999974

>  <TPSA>  (348) 
101.14999999999999

>  <logP>  (348) 
1.0913999999999995

>  <HBD>  (348) 
2

>  <HBA>  (348) 
5

>  <SMILES>  (348) 
[H]c1c(N([H])S(=O)(=O)C([H])([H])C([H])([H])OC([H])([H])C2([H])C([H])([H])C2([H])[H])c([H])c2c(=O)n([H])c([H])nc2c1[H]

$$$$
Z3071600379_pose8
     RDKit          3D

 39 41  0  0  0  0  0  0  0  0999 V2000
    7.9996   43.3999   51.4781 O   0  0  0  0  0  0  0  0  0  0  0  0
    7.0880   43.1452   50.7002 C   0  0  0  0  0  0  0  0  0  0  0  0
    7.2058   42.1906   49.7217 N   0  0  0  0  0  0  0  0  0  0  0  0
    6.1973   41.8947   48.8519 C   0  0  0  0  0  0  0  0  0  0  0  0
    5.0447   42.4708   48.8556 N   0  0  0  0  0  0  0  0  0  0  0  0
    4.8190   43.4639   49.8243 C   0  0  0  0  0  0  0  0  0  0  0  0
    3.5800   44.0992   49.8676 C   0  0  0  0  0  0  0  0  0  0  0  0
    3.3262   45.1018   50.8120 C   0  0  0  0  0  0  0  0  0  0  0  0
    4.3196   45.4951   51.7103 C   0  0  0  0  0  0  0  0  0  0  0  0
    4.1001   46.4922   52.7002 N   0  0  0  0  0  0  0  0  0  0  0  0
    4.2256   48.1326   52.3884 S   0  0  0  0  0  0  0  0  0  0  0  0
    4.0978   48.3990   50.9719 O   0  0  0  0  0  0  0  0  0  0  0  0
    3.3139   48.7555   53.3280 O   0  0  0  0  0  0  0  0  0  0  0  0
    5.8718   48.5714   52.9283 C   0  0  0  0  0  0  0  0  0  0  0  0
    6.4495   47.6222   53.9584 C   0  0  0  0  0  0  0  0  0  0  0  0
    7.6950   47.1109   53.4787 O   0  0  0  0  0  0  0  0  0  0  0  0
    8.1344   45.9517   54.1916 C   0  0  0  0  0  0  0  0  0  0  0  0
    9.5259   45.5866   53.7829 C   0  0  0  0  0  0  0  0  0  0  0  0
   10.6358   45.6049   54.8044 C   0  0  0  0  0  0  0  0  0  0  0  0
   10.1618   44.2960   54.2371 C   0  0  0  0  0  0  0  0  0  0  0  0
    5.5518   44.8412   51.7015 C   0  0  0  0  0  0  0  0  0  0  0  0
    5.7910   43.8405   50.7557 C   0  0  0  0  0  0  0  0  0  0  0  0
    8.0898   41.7041   49.6749 H   0  0  0  0  0  0  0  0  0  0  0  0
    6.3799   41.1139   48.0989 H   0  0  0  0  0  0  0  0  0  0  0  0
    2.7942   43.8110   49.1538 H   0  0  0  0  0  0  0  0  0  0  0  0
    2.3374   45.5826   50.8460 H   0  0  0  0  0  0  0  0  0  0  0  0
    4.3352   46.2593   53.6654 H   0  0  0  0  0  0  0  0  0  0  0  0
    6.5350   48.5765   52.0507 H   0  0  0  0  0  0  0  0  0  0  0  0
    5.8000   49.5592   53.4067 H   0  0  0  0  0  0  0  0  0  0  0  0
    6.6122   48.1600   54.9041 H   0  0  0  0  0  0  0  0  0  0  0  0
    5.7495   46.7911   54.1293 H   0  0  0  0  0  0  0  0  0  0  0  0
    8.1167   46.1615   55.2712 H   0  0  0  0  0  0  0  0  0  0  0  0
    7.4618   45.1128   53.9593 H   0  0  0  0  0  0  0  0  0  0  0  0
    9.3484   46.0553   52.8037 H   0  0  0  0  0  0  0  0  0  0  0  0
   11.6274   45.9953   54.5317 H   0  0  0  0  0  0  0  0  0  0  0  0
   10.7523   46.0159   55.8181 H   0  0  0  0  0  0  0  0  0  0  0  0
   10.8067   43.7292   53.5495 H   0  0  0  0  0  0  0  0  0  0  0  0
    9.7881   43.3537   54.6641 H   0  0  0  0  0  0  0  0  0  0  0  0
    6.3282   45.1108   52.4326 H   0  0  0  0  0  0  0  0  0  0  0  0
  1  2  2  0
  2  3  1  0
  3  4  1  0
  4  5  2  0
  5  6  1  0
  6  7  2  0
  7  8  1  0
  8  9  2  0
  9 10  1  0
 10 11  1  0
 11 12  2  0
 11 13  2  0
 11 14  1  0
 14 15  1  0
 15 16  1  0
 16 17  1  0
 17 18  1  0
 18 19  1  0
 19 20  1  0
  9 21  1  0
 21 22  2  0
 22  2  1  0
 22  6  1  0
 20 18  1  0
  3 23  1  0
  4 24  1  0
  7 25  1  0
  8 26  1  0
 10 27  1  0
 14 28  1  0
 14 29  1  0
 15 30  1  0
 15 31  1  0
 17 32  1  0
 17 33  1  0
 18 34  1  0
 19 35  1  0
 19 36  1  0
 20 37  1  0
 20 38  1  0
 21 39  1  0
M  END
>  <meeko>  (349) 
{"is_sidechain": false}

>  <CID>  (349) 
Z3071600379

>  <pose_index>  (349) 
8

>  <docking_score>  (349) 
-7.235

>  <rmsd_to_best_selected>  (349) 
1.6388071385213967

>  <MWT>  (349) 
323.37399999999974

>  <TPSA>  (349) 
101.14999999999999

>  <logP>  (349) 
1.0913999999999995

>  <HBD>  (349) 
2

>  <HBA>  (349) 
5

>  <SMILES>  (349) 
[H]c1c(N([H])S(=O)(=O)C([H])([H])C([H])([H])OC([H])([H])C2([H])C([H])([H])C2([H])[H])c([H])c2c(=O)n([H])c([H])nc2c1[H]

$$$$
Z3091154570_pose2
     RDKit          3D

 45 48  0  0  0  0  0  0  0  0999 V2000
    2.6612   43.7304   51.6334 O   0  0  0  0  0  0  0  0  0  0  0  0
    3.4664   44.4254   52.2440 C   0  0  0  0  0  0  0  0  0  0  0  0
    3.1631   45.2489   53.3034 N   0  0  0  0  0  0  0  0  0  0  0  0
    1.9217   45.4021   53.8921 C   0  0  0  0  0  0  0  0  0  0  0  0
    1.5428   44.6855   54.9523 N   0  0  0  0  0  0  0  0  0  0  0  0
    0.3092   44.9212   55.4495 C   0  0  0  0  0  0  0  0  0  0  0  0
   -0.5617   45.8419   54.9152 C   0  0  0  0  0  0  0  0  0  0  0  0
   -1.8081   46.1551   55.3766 O   0  0  0  0  0  0  0  0  0  0  0  0
   -1.8888   46.9605   56.4864 C   0  0  0  0  0  0  0  0  0  0  0  0
   -1.0822   48.0912   56.6272 C   0  0  0  0  0  0  0  0  0  0  0  0
   -1.1731   48.8630   57.7853 C   0  0  0  0  0  0  0  0  0  0  0  0
   -2.0553   48.4933   58.8030 C   0  0  0  0  0  0  0  0  0  0  0  0
   -2.8418   47.3480   58.6679 C   0  0  0  0  0  0  0  0  0  0  0  0
   -2.7531   46.5747   57.5104 C   0  0  0  0  0  0  0  0  0  0  0  0
   -0.0661   46.5420   53.8407 C   0  0  0  0  0  0  0  0  0  0  0  0
    1.1614   46.3434   53.3070 N   0  0  0  0  0  0  0  0  0  0  0  0
    4.9044   44.4611   51.8735 C   0  0  0  0  0  0  0  0  0  0  0  0
    5.6211   43.6044   50.9876 C   0  0  0  0  0  0  0  0  0  0  0  0
    6.9165   44.0659   50.9859 C   0  0  0  0  0  0  0  0  0  0  0  0
    6.9389   45.1317   51.8344 N   0  0  0  0  0  0  0  0  0  0  0  0
    8.0487   45.9970   52.1767 C   0  0  0  0  0  0  0  0  0  0  0  0
    7.9385   47.3953   51.5548 C   0  0  0  0  0  0  0  0  0  0  0  0
    8.7617   48.3204   52.4540 C   0  0  0  0  0  0  0  0  0  0  0  0
    9.2235   47.4707   53.6321 C   0  0  0  0  0  0  0  0  0  0  0  0
    8.2536   46.2997   53.6617 C   0  0  0  0  0  0  0  0  0  0  0  0
    5.7358   45.3954   52.3736 N   0  0  0  0  0  0  0  0  0  0  0  0
    3.8554   45.8617   53.6964 H   0  0  0  0  0  0  0  0  0  0  0  0
   -0.0163   44.3460   56.3288 H   0  0  0  0  0  0  0  0  0  0  0  0
   -0.3789   48.3719   55.8293 H   0  0  0  0  0  0  0  0  0  0  0  0
   -0.5502   49.7626   57.8971 H   0  0  0  0  0  0  0  0  0  0  0  0
   -2.1305   49.1062   59.7133 H   0  0  0  0  0  0  0  0  0  0  0  0
   -3.5310   47.0555   59.4738 H   0  0  0  0  0  0  0  0  0  0  0  0
   -3.3622   45.6647   57.4059 H   0  0  0  0  0  0  0  0  0  0  0  0
   -0.7076   47.3115   53.3865 H   0  0  0  0  0  0  0  0  0  0  0  0
    5.2205   42.7502   50.4220 H   0  0  0  0  0  0  0  0  0  0  0  0
    7.7633   43.6573   50.4150 H   0  0  0  0  0  0  0  0  0  0  0  0
    8.8809   45.3921   51.7876 H   0  0  0  0  0  0  0  0  0  0  0  0
    8.3460   47.3928   50.5330 H   0  0  0  0  0  0  0  0  0  0  0  0
    6.8914   47.7255   51.4863 H   0  0  0  0  0  0  0  0  0  0  0  0
    9.6297   48.7129   51.9040 H   0  0  0  0  0  0  0  0  0  0  0  0
    8.1681   49.1829   52.7911 H   0  0  0  0  0  0  0  0  0  0  0  0
   10.2538   47.1182   53.4768 H   0  0  0  0  0  0  0  0  0  0  0  0
    9.2278   48.0338   54.5771 H   0  0  0  0  0  0  0  0  0  0  0  0
    8.6894   45.4367   54.1863 H   0  0  0  0  0  0  0  0  0  0  0  0
    7.3178   46.5208   54.1959 H   0  0  0  0  0  0  0  0  0  0  0  0
  1  2  2  0
  2  3  1  0
  3  4  1  0
  4  5  2  0
  5  6  1  0
  6  7  2  0
  7  8  1  0
  8  9  1  0
  9 10  2  0
 10 11  1  0
 11 12  2  0
 12 13  1  0
 13 14  2  0
  7 15  1  0
 15 16  2  0
  2 17  1  0
 17 18  1  0
 18 19  2  0
 19 20  1  0
 20 21  1  0
 21 22  1  0
 22 23  1  0
 23 24  1  0
 24 25  1  0
 20 26  1  0
 16  4  1  0
 26 17  2  0
 14  9  1  0
 25 21  1  0
  3 27  1  0
  6 28  1  0
 10 29  1  0
 11 30  1  0
 12 31  1  0
 13 32  1  0
 14 33  1  0
 15 34  1  0
 18 35  1  0
 19 36  1  0
 21 37  1  0
 22 38  1  0
 22 39  1  0
 23 40  1  0
 23 41  1  0
 24 42  1  0
 24 43  1  0
 25 44  1  0
 25 45  1  0
M  END
>  <meeko>  (350) 
{"is_sidechain": false}

>  <CID>  (350) 
Z3091154570

>  <pose_index>  (350) 
2

>  <docking_score>  (350) 
-8.111

>  <rmsd_to_best_selected>  (350) 
0.0

>  <MWT>  (350) 
349.3939999999997

>  <TPSA>  (350) 
81.92999999999999

>  <logP>  (350) 
3.8328000000000015

>  <HBD>  (350) 
1

>  <HBA>  (350) 
6

>  <SMILES>  (350) 
[H]c1nc(N([H])C(=O)c2nn(C3([H])C([H])([H])C([H])([H])C([H])([H])C3([H])[H])c([H])c2[H])nc([H])c1Oc1c([H])c([H])c([H])c([H])c1[H]

$$$$
Z3091154570_pose4
     RDKit          3D

 45 48  0  0  0  0  0  0  0  0999 V2000
    2.7009   44.9368   51.3240 O   0  0  0  0  0  0  0  0  0  0  0  0
    3.4721   45.1068   52.2615 C   0  0  0  0  0  0  0  0  0  0  0  0
    3.1329   45.6322   53.4856 N   0  0  0  0  0  0  0  0  0  0  0  0
    1.8667   46.0142   53.8898 C   0  0  0  0  0  0  0  0  0  0  0  0
    0.9686   45.1364   54.3441 N   0  0  0  0  0  0  0  0  0  0  0  0
   -0.2361   45.6203   54.7160 C   0  0  0  0  0  0  0  0  0  0  0  0
   -0.5761   46.9512   54.6400 C   0  0  0  0  0  0  0  0  0  0  0  0
   -1.7588   47.5169   55.0217 O   0  0  0  0  0  0  0  0  0  0  0  0
   -2.1082   47.4215   56.3476 C   0  0  0  0  0  0  0  0  0  0  0  0
   -1.2848   47.9249   57.3576 C   0  0  0  0  0  0  0  0  0  0  0  0
   -1.6618   47.7771   58.6908 C   0  0  0  0  0  0  0  0  0  0  0  0
   -2.8482   47.1126   59.0122 C   0  0  0  0  0  0  0  0  0  0  0  0
   -3.6551   46.5901   58.0005 C   0  0  0  0  0  0  0  0  0  0  0  0
   -3.2804   46.7355   56.6644 C   0  0  0  0  0  0  0  0  0  0  0  0
    0.4264   47.7723   54.1818 C   0  0  0  0  0  0  0  0  0  0  0  0
    1.6481   47.3367   53.7974 N   0  0  0  0  0  0  0  0  0  0  0  0
    4.9144   44.7634   52.1569 C   0  0  0  0  0  0  0  0  0  0  0  0
    5.5203   43.4800   52.0273 C   0  0  0  0  0  0  0  0  0  0  0  0
    6.8743   43.7103   51.9619 C   0  0  0  0  0  0  0  0  0  0  0  0
    7.0341   45.0599   52.0536 N   0  0  0  0  0  0  0  0  0  0  0  0
    8.2558   45.8364   52.0109 C   0  0  0  0  0  0  0  0  0  0  0  0
    8.0419   47.2725   51.5165 C   0  0  0  0  0  0  0  0  0  0  0  0
    9.1956   48.0917   52.0988 C   0  0  0  0  0  0  0  0  0  0  0  0
    9.9751   47.1488   53.0083 C   0  0  0  0  0  0  0  0  0  0  0  0
    8.9901   46.0385   53.3371 C   0  0  0  0  0  0  0  0  0  0  0  0
    5.8654   45.7162   52.1617 N   0  0  0  0  0  0  0  0  0  0  0  0
    3.8342   45.8314   54.1761 H   0  0  0  0  0  0  0  0  0  0  0  0
   -0.9855   44.9126   55.1002 H   0  0  0  0  0  0  0  0  0  0  0  0
   -0.3444   48.4350   57.1019 H   0  0  0  0  0  0  0  0  0  0  0  0
   -1.0253   48.1836   59.4905 H   0  0  0  0  0  0  0  0  0  0  0  0
   -3.1469   47.0011   60.0650 H   0  0  0  0  0  0  0  0  0  0  0  0
   -4.5864   46.0636   58.2564 H   0  0  0  0  0  0  0  0  0  0  0  0
   -3.9062   46.3113   55.8653 H   0  0  0  0  0  0  0  0  0  0  0  0
    0.2225   48.8516   54.1239 H   0  0  0  0  0  0  0  0  0  0  0  0
    5.0101   42.5063   51.9878 H   0  0  0  0  0  0  0  0  0  0  0  0
    7.6685   42.9565   51.8568 H   0  0  0  0  0  0  0  0  0  0  0  0
    8.8502   45.2073   51.3321 H   0  0  0  0  0  0  0  0  0  0  0  0
    8.0650   47.3063   50.4173 H   0  0  0  0  0  0  0  0  0  0  0  0
    7.0654   47.6677   51.8330 H   0  0  0  0  0  0  0  0  0  0  0  0
    9.8435   48.4640   51.2915 H   0  0  0  0  0  0  0  0  0  0  0  0
    8.8244   48.9658   52.6538 H   0  0  0  0  0  0  0  0  0  0  0  0
   10.8561   46.7456   52.4875 H   0  0  0  0  0  0  0  0  0  0  0  0
   10.3533   47.6536   53.9095 H   0  0  0  0  0  0  0  0  0  0  0  0
    9.5142   45.1214   53.6440 H   0  0  0  0  0  0  0  0  0  0  0  0
    8.3198   46.2836   54.1741 H   0  0  0  0  0  0  0  0  0  0  0  0
  1  2  2  0
  2  3  1  0
  3  4  1  0
  4  5  2  0
  5  6  1  0
  6  7  2  0
  7  8  1  0
  8  9  1  0
  9 10  2  0
 10 11  1  0
 11 12  2  0
 12 13  1  0
 13 14  2  0
  7 15  1  0
 15 16  2  0
  2 17  1  0
 17 18  1  0
 18 19  2  0
 19 20  1  0
 20 21  1  0
 21 22  1  0
 22 23  1  0
 23 24  1  0
 24 25  1  0
 20 26  1  0
 16  4  1  0
 26 17  2  0
 14  9  1  0
 25 21  1  0
  3 27  1  0
  6 28  1  0
 10 29  1  0
 11 30  1  0
 12 31  1  0
 13 32  1  0
 14 33  1  0
 15 34  1  0
 18 35  1  0
 19 36  1  0
 21 37  1  0
 22 38  1  0
 22 39  1  0
 23 40  1  0
 23 41  1  0
 24 42  1  0
 24 43  1  0
 25 44  1  0
 25 45  1  0
M  END
>  <meeko>  (351) 
{"is_sidechain": false}

>  <CID>  (351) 
Z3091154570

>  <pose_index>  (351) 
4

>  <docking_score>  (351) 
-7.944

>  <rmsd_to_best_selected>  (351) 
1.102178830259857

>  <MWT>  (351) 
349.3939999999997

>  <TPSA>  (351) 
81.92999999999999

>  <logP>  (351) 
3.8328000000000015

>  <HBD>  (351) 
1

>  <HBA>  (351) 
6

>  <SMILES>  (351) 
[H]c1nc(N([H])C(=O)c2nn(C3([H])C([H])([H])C([H])([H])C([H])([H])C3([H])[H])c([H])c2[H])nc([H])c1Oc1c([H])c([H])c([H])c([H])c1[H]

$$$$
Z3091154570_pose5
     RDKit          3D

 45 48  0  0  0  0  0  0  0  0999 V2000
    2.4420   45.3477   51.8829 O   0  0  0  0  0  0  0  0  0  0  0  0
    3.3623   45.0747   52.6467 C   0  0  0  0  0  0  0  0  0  0  0  0
    3.2424   44.8961   54.0048 N   0  0  0  0  0  0  0  0  0  0  0  0
    2.0704   44.9447   54.7369 C   0  0  0  0  0  0  0  0  0  0  0  0
    1.2033   43.9295   54.7610 N   0  0  0  0  0  0  0  0  0  0  0  0
    0.0923   44.0836   55.5140 C   0  0  0  0  0  0  0  0  0  0  0  0
   -0.1844   45.2221   56.2350 C   0  0  0  0  0  0  0  0  0  0  0  0
   -1.2684   45.4396   57.0382 O   0  0  0  0  0  0  0  0  0  0  0  0
   -1.8144   46.7004   57.0354 C   0  0  0  0  0  0  0  0  0  0  0  0
   -1.6245   47.5804   58.1023 C   0  0  0  0  0  0  0  0  0  0  0  0
   -2.2247   48.8387   58.0728 C   0  0  0  0  0  0  0  0  0  0  0  0
   -3.0254   49.2047   56.9886 C   0  0  0  0  0  0  0  0  0  0  0  0
   -3.2326   48.3127   55.9361 C   0  0  0  0  0  0  0  0  0  0  0  0
   -2.6330   47.0529   55.9618 C   0  0  0  0  0  0  0  0  0  0  0  0
    0.7832   46.1958   56.1608 C   0  0  0  0  0  0  0  0  0  0  0  0
    1.9110   46.0889   55.4217 N   0  0  0  0  0  0  0  0  0  0  0  0
    4.7583   44.9212   52.1615 C   0  0  0  0  0  0  0  0  0  0  0  0
    5.3738   43.7870   51.5558 C   0  0  0  0  0  0  0  0  0  0  0  0
    6.6690   44.1635   51.2871 C   0  0  0  0  0  0  0  0  0  0  0  0
    6.7879   45.4480   51.7222 N   0  0  0  0  0  0  0  0  0  0  0  0
    7.9358   46.3282   51.6565 C   0  0  0  0  0  0  0  0  0  0  0  0
    7.6568   47.7284   52.2190 C   0  0  0  0  0  0  0  0  0  0  0  0
    9.0160   48.2846   52.6507 C   0  0  0  0  0  0  0  0  0  0  0  0
   10.0242   47.1595   52.4448 C   0  0  0  0  0  0  0  0  0  0  0  0
    9.1824   45.8934   52.4283 C   0  0  0  0  0  0  0  0  0  0  0  0
    5.6457   45.9298   52.2444 N   0  0  0  0  0  0  0  0  0  0  0  0
    4.0530   44.7671   54.5830 H   0  0  0  0  0  0  0  0  0  0  0  0
   -0.6295   43.2545   55.5527 H   0  0  0  0  0  0  0  0  0  0  0  0
   -1.0051   47.2829   58.9613 H   0  0  0  0  0  0  0  0  0  0  0  0
   -2.0676   49.5428   58.9032 H   0  0  0  0  0  0  0  0  0  0  0  0
   -3.4941   50.1995   56.9644 H   0  0  0  0  0  0  0  0  0  0  0  0
   -3.8683   48.6023   55.0864 H   0  0  0  0  0  0  0  0  0  0  0  0
   -2.8047   46.3417   55.1403 H   0  0  0  0  0  0  0  0  0  0  0  0
    0.6307   47.1194   56.7385 H   0  0  0  0  0  0  0  0  0  0  0  0
    4.9089   42.8123   51.3464 H   0  0  0  0  0  0  0  0  0  0  0  0
    7.4512   43.5503   50.8158 H   0  0  0  0  0  0  0  0  0  0  0  0
    8.1242   46.3042   50.5731 H   0  0  0  0  0  0  0  0  0  0  0  0
    7.2091   48.3695   51.4453 H   0  0  0  0  0  0  0  0  0  0  0  0
    6.9490   47.6924   53.0603 H   0  0  0  0  0  0  0  0  0  0  0  0
    9.2849   49.1546   52.0336 H   0  0  0  0  0  0  0  0  0  0  0  0
    8.9970   48.6173   53.6990 H   0  0  0  0  0  0  0  0  0  0  0  0
   10.5573   47.2847   51.4908 H   0  0  0  0  0  0  0  0  0  0  0  0
   10.7951   47.1394   53.2293 H   0  0  0  0  0  0  0  0  0  0  0  0
    9.7051   45.0764   51.9095 H   0  0  0  0  0  0  0  0  0  0  0  0
    8.9601   45.5041   53.4328 H   0  0  0  0  0  0  0  0  0  0  0  0
  1  2  2  0
  2  3  1  0
  3  4  1  0
  4  5  2  0
  5  6  1  0
  6  7  2  0
  7  8  1  0
  8  9  1  0
  9 10  2  0
 10 11  1  0
 11 12  2  0
 12 13  1  0
 13 14  2  0
  7 15  1  0
 15 16  2  0
  2 17  1  0
 17 18  1  0
 18 19  2  0
 19 20  1  0
 20 21  1  0
 21 22  1  0
 22 23  1  0
 23 24  1  0
 24 25  1  0
 20 26  1  0
 16  4  1  0
 26 17  2  0
 14  9  1  0
 25 21  1  0
  3 27  1  0
  6 28  1  0
 10 29  1  0
 11 30  1  0
 12 31  1  0
 13 32  1  0
 14 33  1  0
 15 34  1  0
 18 35  1  0
 19 36  1  0
 21 37  1  0
 22 38  1  0
 22 39  1  0
 23 40  1  0
 23 41  1  0
 24 42  1  0
 24 43  1  0
 25 44  1  0
 25 45  1  0
M  END
>  <meeko>  (352) 
{"is_sidechain": false}

>  <CID>  (352) 
Z3091154570

>  <pose_index>  (352) 
5

>  <docking_score>  (352) 
-7.929

>  <rmsd_to_best_selected>  (352) 
1.8412716955526776

>  <MWT>  (352) 
349.3939999999997

>  <TPSA>  (352) 
81.92999999999999

>  <logP>  (352) 
3.8328000000000015

>  <HBD>  (352) 
1

>  <HBA>  (352) 
6

>  <SMILES>  (352) 
[H]c1nc(N([H])C(=O)c2nn(C3([H])C([H])([H])C([H])([H])C([H])([H])C3([H])[H])c([H])c2[H])nc([H])c1Oc1c([H])c([H])c([H])c([H])c1[H]

$$$$
Z3091154570_pose6
     RDKit          3D

 45 48  0  0  0  0  0  0  0  0999 V2000
    2.6241   43.6636   51.9779 O   0  0  0  0  0  0  0  0  0  0  0  0
    3.4668   44.3275   52.5713 C   0  0  0  0  0  0  0  0  0  0  0  0
    3.2557   45.0163   53.7419 N   0  0  0  0  0  0  0  0  0  0  0  0
    2.0844   45.0449   54.4764 C   0  0  0  0  0  0  0  0  0  0  0  0
    1.8970   44.2741   55.5489 N   0  0  0  0  0  0  0  0  0  0  0  0
    0.7150   44.3877   56.1937 C   0  0  0  0  0  0  0  0  0  0  0  0
   -0.2888   45.2402   55.7944 C   0  0  0  0  0  0  0  0  0  0  0  0
   -1.4938   45.4290   56.4085 O   0  0  0  0  0  0  0  0  0  0  0  0
   -1.8447   46.7180   56.7315 C   0  0  0  0  0  0  0  0  0  0  0  0
   -3.1281   47.2084   56.4860 C   0  0  0  0  0  0  0  0  0  0  0  0
   -3.4319   48.5324   56.7993 C   0  0  0  0  0  0  0  0  0  0  0  0
   -2.4480   49.3653   57.3381 C   0  0  0  0  0  0  0  0  0  0  0  0
   -1.1595   48.8773   57.5587 C   0  0  0  0  0  0  0  0  0  0  0  0
   -0.8524   47.5524   57.2465 C   0  0  0  0  0  0  0  0  0  0  0  0
    0.0148   46.0057   54.6937 C   0  0  0  0  0  0  0  0  0  0  0  0
    1.1824   45.9286   54.0146 N   0  0  0  0  0  0  0  0  0  0  0  0
    4.8517   44.4728   52.0524 C   0  0  0  0  0  0  0  0  0  0  0  0
    5.5813   43.5983   51.1963 C   0  0  0  0  0  0  0  0  0  0  0  0
    6.8079   44.1917   51.0112 C   0  0  0  0  0  0  0  0  0  0  0  0
    6.7806   45.3479   51.7315 N   0  0  0  0  0  0  0  0  0  0  0  0
    7.8062   46.3623   51.8623 C   0  0  0  0  0  0  0  0  0  0  0  0
    7.3104   47.6357   52.5590 C   0  0  0  0  0  0  0  0  0  0  0  0
    8.5542   48.2941   53.1611 C   0  0  0  0  0  0  0  0  0  0  0  0
    9.7119   47.3344   52.9100 C   0  0  0  0  0  0  0  0  0  0  0  0
    9.0452   45.9875   52.6770 C   0  0  0  0  0  0  0  0  0  0  0  0
    5.6083   45.5433   52.3598 N   0  0  0  0  0  0  0  0  0  0  0  0
    3.9654   45.6170   54.1239 H   0  0  0  0  0  0  0  0  0  0  0  0
    0.5462   43.7658   57.0851 H   0  0  0  0  0  0  0  0  0  0  0  0
   -3.8957   46.5537   56.0477 H   0  0  0  0  0  0  0  0  0  0  0  0
   -4.4456   48.9211   56.6225 H   0  0  0  0  0  0  0  0  0  0  0  0
   -2.6898   50.4086   57.5890 H   0  0  0  0  0  0  0  0  0  0  0  0
   -0.3859   49.5371   57.9786 H   0  0  0  0  0  0  0  0  0  0  0  0
    0.1660   47.1682   57.4056 H   0  0  0  0  0  0  0  0  0  0  0  0
   -0.7390   46.7261   54.3430 H   0  0  0  0  0  0  0  0  0  0  0  0
    5.2347   42.6448   50.7711 H   0  0  0  0  0  0  0  0  0  0  0  0
    7.6422   43.8102   50.4043 H   0  0  0  0  0  0  0  0  0  0  0  0
    8.0676   46.4985   50.8026 H   0  0  0  0  0  0  0  0  0  0  0  0
    6.8346   48.3097   51.8315 H   0  0  0  0  0  0  0  0  0  0  0  0
    6.5595   47.4087   53.3302 H   0  0  0  0  0  0  0  0  0  0  0  0
    8.7478   49.2603   52.6724 H   0  0  0  0  0  0  0  0  0  0  0  0
    8.4225   48.4883   54.2358 H   0  0  0  0  0  0  0  0  0  0  0  0
   10.2871   47.6422   52.0243 H   0  0  0  0  0  0  0  0  0  0  0  0
   10.4243   47.3096   53.7478 H   0  0  0  0  0  0  0  0  0  0  0  0
    9.7031   45.3120   52.1104 H   0  0  0  0  0  0  0  0  0  0  0  0
    8.8098   45.4501   53.6074 H   0  0  0  0  0  0  0  0  0  0  0  0
  1  2  2  0
  2  3  1  0
  3  4  1  0
  4  5  2  0
  5  6  1  0
  6  7  2  0
  7  8  1  0
  8  9  1  0
  9 10  2  0
 10 11  1  0
 11 12  2  0
 12 13  1  0
 13 14  2  0
  7 15  1  0
 15 16  2  0
  2 17  1  0
 17 18  1  0
 18 19  2  0
 19 20  1  0
 20 21  1  0
 21 22  1  0
 22 23  1  0
 23 24  1  0
 24 25  1  0
 20 26  1  0
 16  4  1  0
 26 17  2  0
 14  9  1  0
 25 21  1  0
  3 27  1  0
  6 28  1  0
 10 29  1  0
 11 30  1  0
 12 31  1  0
 13 32  1  0
 14 33  1  0
 15 34  1  0
 18 35  1  0
 19 36  1  0
 21 37  1  0
 22 38  1  0
 22 39  1  0
 23 40  1  0
 23 41  1  0
 24 42  1  0
 24 43  1  0
 25 44  1  0
 25 45  1  0
M  END
>  <meeko>  (353) 
{"is_sidechain": false}

>  <CID>  (353) 
Z3091154570

>  <pose_index>  (353) 
6

>  <docking_score>  (353) 
-7.899

>  <rmsd_to_best_selected>  (353) 
1.33432764360635

>  <MWT>  (353) 
349.3939999999997

>  <TPSA>  (353) 
81.92999999999999

>  <logP>  (353) 
3.8328000000000015

>  <HBD>  (353) 
1

>  <HBA>  (353) 
6

>  <SMILES>  (353) 
[H]c1nc(N([H])C(=O)c2nn(C3([H])C([H])([H])C([H])([H])C([H])([H])C3([H])[H])c([H])c2[H])nc([H])c1Oc1c([H])c([H])c([H])c([H])c1[H]

$$$$
Z3091154570_pose7
     RDKit          3D

 45 48  0  0  0  0  0  0  0  0999 V2000
    2.7700   43.4998   51.9923 O   0  0  0  0  0  0  0  0  0  0  0  0
    3.5564   44.3096   52.4740 C   0  0  0  0  0  0  0  0  0  0  0  0
    3.2473   45.2431   53.4341 N   0  0  0  0  0  0  0  0  0  0  0  0
    2.0235   45.4042   54.0562 C   0  0  0  0  0  0  0  0  0  0  0  0
    1.0743   46.2043   53.5636 N   0  0  0  0  0  0  0  0  0  0  0  0
   -0.0858   46.2827   54.2520 C   0  0  0  0  0  0  0  0  0  0  0  0
   -0.3240   45.5948   55.4188 C   0  0  0  0  0  0  0  0  0  0  0  0
   -1.4758   45.6018   56.1522 O   0  0  0  0  0  0  0  0  0  0  0  0
   -1.8497   46.7894   56.7340 C   0  0  0  0  0  0  0  0  0  0  0  0
   -0.9097   47.6430   57.3172 C   0  0  0  0  0  0  0  0  0  0  0  0
   -1.3368   48.8229   57.9254 C   0  0  0  0  0  0  0  0  0  0  0  0
   -2.6971   49.1363   57.9651 C   0  0  0  0  0  0  0  0  0  0  0  0
   -3.6337   48.2684   57.4025 C   0  0  0  0  0  0  0  0  0  0  0  0
   -3.2108   47.0867   56.7934 C   0  0  0  0  0  0  0  0  0  0  0  0
    0.7081   44.7825   55.8264 C   0  0  0  0  0  0  0  0  0  0  0  0
    1.8867   44.6698   55.1731 N   0  0  0  0  0  0  0  0  0  0  0  0
    4.9751   44.3732   52.0348 C   0  0  0  0  0  0  0  0  0  0  0  0
    5.7238   43.4169   51.2895 C   0  0  0  0  0  0  0  0  0  0  0  0
    6.9797   43.9567   51.1418 C   0  0  0  0  0  0  0  0  0  0  0  0
    6.9498   45.1614   51.7756 N   0  0  0  0  0  0  0  0  0  0  0  0
    8.0011   46.1501   51.9001 C   0  0  0  0  0  0  0  0  0  0  0  0
    7.4701   47.5729   52.1228 C   0  0  0  0  0  0  0  0  0  0  0  0
    8.5943   48.3338   52.8294 C   0  0  0  0  0  0  0  0  0  0  0  0
    9.6923   47.3137   53.1085 C   0  0  0  0  0  0  0  0  0  0  0  0
    8.9846   45.9685   53.0572 C   0  0  0  0  0  0  0  0  0  0  0  0
    5.7487   45.4392   52.3139 N   0  0  0  0  0  0  0  0  0  0  0  0
    3.9178   45.9370   53.7150 H   0  0  0  0  0  0  0  0  0  0  0  0
   -0.8821   46.9313   53.8582 H   0  0  0  0  0  0  0  0  0  0  0  0
    0.1597   47.3861   57.2967 H   0  0  0  0  0  0  0  0  0  0  0  0
   -0.6017   49.5072   58.3742 H   0  0  0  0  0  0  0  0  0  0  0  0
   -3.0311   50.0700   58.4411 H   0  0  0  0  0  0  0  0  0  0  0  0
   -4.7049   48.5157   57.4394 H   0  0  0  0  0  0  0  0  0  0  0  0
   -3.9475   46.3929   56.3620 H   0  0  0  0  0  0  0  0  0  0  0  0
    0.5661   44.1875   56.7406 H   0  0  0  0  0  0  0  0  0  0  0  0
    5.3700   42.4468   50.9105 H   0  0  0  0  0  0  0  0  0  0  0  0
    7.8355   43.5064   50.6175 H   0  0  0  0  0  0  0  0  0  0  0  0
    8.5082   46.0014   50.9354 H   0  0  0  0  0  0  0  0  0  0  0  0
    7.2330   48.0480   51.1594 H   0  0  0  0  0  0  0  0  0  0  0  0
    6.5462   47.5705   52.7198 H   0  0  0  0  0  0  0  0  0  0  0  0
    8.9761   49.1369   52.1819 H   0  0  0  0  0  0  0  0  0  0  0  0
    8.2375   48.8014   53.7590 H   0  0  0  0  0  0  0  0  0  0  0  0
   10.4784   47.3689   52.3410 H   0  0  0  0  0  0  0  0  0  0  0  0
   10.1897   47.4881   54.0740 H   0  0  0  0  0  0  0  0  0  0  0  0
    9.6947   45.1543   52.8502 H   0  0  0  0  0  0  0  0  0  0  0  0
    8.4979   45.6949   54.0050 H   0  0  0  0  0  0  0  0  0  0  0  0
  1  2  2  0
  2  3  1  0
  3  4  1  0
  4  5  2  0
  5  6  1  0
  6  7  2  0
  7  8  1  0
  8  9  1  0
  9 10  2  0
 10 11  1  0
 11 12  2  0
 12 13  1  0
 13 14  2  0
  7 15  1  0
 15 16  2  0
  2 17  1  0
 17 18  1  0
 18 19  2  0
 19 20  1  0
 20 21  1  0
 21 22  1  0
 22 23  1  0
 23 24  1  0
 24 25  1  0
 20 26  1  0
 16  4  1  0
 26 17  2  0
 14  9  1  0
 25 21  1  0
  3 27  1  0
  6 28  1  0
 10 29  1  0
 11 30  1  0
 12 31  1  0
 13 32  1  0
 14 33  1  0
 15 34  1  0
 18 35  1  0
 19 36  1  0
 21 37  1  0
 22 38  1  0
 22 39  1  0
 23 40  1  0
 23 41  1  0
 24 42  1  0
 24 43  1  0
 25 44  1  0
 25 45  1  0
M  END
>  <meeko>  (354) 
{"is_sidechain": false}

>  <CID>  (354) 
Z3091154570

>  <pose_index>  (354) 
7

>  <docking_score>  (354) 
-7.815

>  <rmsd_to_best_selected>  (354) 
0.9762871111391627

>  <MWT>  (354) 
349.3939999999997

>  <TPSA>  (354) 
81.92999999999999

>  <logP>  (354) 
3.8328000000000015

>  <HBD>  (354) 
1

>  <HBA>  (354) 
6

>  <SMILES>  (354) 
[H]c1nc(N([H])C(=O)c2nn(C3([H])C([H])([H])C([H])([H])C([H])([H])C3([H])[H])c([H])c2[H])nc([H])c1Oc1c([H])c([H])c([H])c([H])c1[H]

$$$$
Z3091154570_pose9
     RDKit          3D

 45 48  0  0  0  0  0  0  0  0999 V2000
    4.0119   46.6859   55.1450 O   0  0  0  0  0  0  0  0  0  0  0  0
    4.0132   45.8504   54.2479 C   0  0  0  0  0  0  0  0  0  0  0  0
    2.9011   45.2112   53.7539 N   0  0  0  0  0  0  0  0  0  0  0  0
    1.5923   45.4280   54.1422 C   0  0  0  0  0  0  0  0  0  0  0  0
    0.9122   46.5178   53.7759 N   0  0  0  0  0  0  0  0  0  0  0  0
   -0.3630   46.6251   54.2104 C   0  0  0  0  0  0  0  0  0  0  0  0
   -0.9774   45.6839   55.0034 C   0  0  0  0  0  0  0  0  0  0  0  0
   -2.2654   45.7089   55.4550 O   0  0  0  0  0  0  0  0  0  0  0  0
   -2.5925   46.6697   56.3815 C   0  0  0  0  0  0  0  0  0  0  0  0
   -3.2761   47.8322   56.0177 C   0  0  0  0  0  0  0  0  0  0  0  0
   -3.5583   48.7959   56.9843 C   0  0  0  0  0  0  0  0  0  0  0  0
   -3.1426   48.6047   58.3043 C   0  0  0  0  0  0  0  0  0  0  0  0
   -2.4389   47.4530   58.6579 C   0  0  0  0  0  0  0  0  0  0  0  0
   -2.1543   46.4860   57.6930 C   0  0  0  0  0  0  0  0  0  0  0  0
   -0.1978   44.5917   55.3024 C   0  0  0  0  0  0  0  0  0  0  0  0
    1.0825   44.4378   54.8932 N   0  0  0  0  0  0  0  0  0  0  0  0
    5.2731   45.4151   53.5910 C   0  0  0  0  0  0  0  0  0  0  0  0
    5.5708   44.1687   52.9647 C   0  0  0  0  0  0  0  0  0  0  0  0
    6.8639   44.2779   52.5099 C   0  0  0  0  0  0  0  0  0  0  0  0
    7.2856   45.5236   52.8641 N   0  0  0  0  0  0  0  0  0  0  0  0
    8.5614   46.1588   52.6067 C   0  0  0  0  0  0  0  0  0  0  0  0
    9.2739   45.6015   51.3661 C   0  0  0  0  0  0  0  0  0  0  0  0
   10.2065   46.7140   50.8839 C   0  0  0  0  0  0  0  0  0  0  0  0
    9.9274   47.9223   51.7703 C   0  0  0  0  0  0  0  0  0  0  0  0
    8.5406   47.6645   52.3388 C   0  0  0  0  0  0  0  0  0  0  0  0
    6.3411   46.2311   53.5081 N   0  0  0  0  0  0  0  0  0  0  0  0
    2.9864   44.4684   53.0831 H   0  0  0  0  0  0  0  0  0  0  0  0
   -0.9408   47.5129   53.9139 H   0  0  0  0  0  0  0  0  0  0  0  0
   -3.5898   47.9862   54.9746 H   0  0  0  0  0  0  0  0  0  0  0  0
   -4.1085   49.7073   56.7077 H   0  0  0  0  0  0  0  0  0  0  0  0
   -3.3707   49.3641   59.0668 H   0  0  0  0  0  0  0  0  0  0  0  0
   -2.1085   47.3073   59.6970 H   0  0  0  0  0  0  0  0  0  0  0  0
   -1.5874   45.5835   57.9652 H   0  0  0  0  0  0  0  0  0  0  0  0
   -0.6431   43.7924   55.9130 H   0  0  0  0  0  0  0  0  0  0  0  0
    4.9038   43.2996   52.8659 H   0  0  0  0  0  0  0  0  0  0  0  0
    7.4411   43.5135   51.9691 H   0  0  0  0  0  0  0  0  0  0  0  0
    9.0699   45.9428   53.5579 H   0  0  0  0  0  0  0  0  0  0  0  0
    9.8527   44.7036   51.6282 H   0  0  0  0  0  0  0  0  0  0  0  0
    8.5563   45.3089   50.5854 H   0  0  0  0  0  0  0  0  0  0  0  0
   11.2563   46.4016   50.9859 H   0  0  0  0  0  0  0  0  0  0  0  0
   10.0333   46.9485   49.8232 H   0  0  0  0  0  0  0  0  0  0  0  0
   10.6716   47.9929   52.5772 H   0  0  0  0  0  0  0  0  0  0  0  0
    9.9825   48.8703   51.2150 H   0  0  0  0  0  0  0  0  0  0  0  0
    8.3815   48.2306   53.2684 H   0  0  0  0  0  0  0  0  0  0  0  0
    7.7282   47.9769   51.6662 H   0  0  0  0  0  0  0  0  0  0  0  0
  1  2  2  0
  2  3  1  0
  3  4  1  0
  4  5  2  0
  5  6  1  0
  6  7  2  0
  7  8  1  0
  8  9  1  0
  9 10  2  0
 10 11  1  0
 11 12  2  0
 12 13  1  0
 13 14  2  0
  7 15  1  0
 15 16  2  0
  2 17  1  0
 17 18  1  0
 18 19  2  0
 19 20  1  0
 20 21  1  0
 21 22  1  0
 22 23  1  0
 23 24  1  0
 24 25  1  0
 20 26  1  0
 16  4  1  0
 26 17  2  0
 14  9  1  0
 25 21  1  0
  3 27  1  0
  6 28  1  0
 10 29  1  0
 11 30  1  0
 12 31  1  0
 13 32  1  0
 14 33  1  0
 15 34  1  0
 18 35  1  0
 19 36  1  0
 21 37  1  0
 22 38  1  0
 22 39  1  0
 23 40  1  0
 23 41  1  0
 24 42  1  0
 24 43  1  0
 25 44  1  0
 25 45  1  0
M  END
>  <meeko>  (355) 
{"is_sidechain": false}

>  <CID>  (355) 
Z3091154570

>  <pose_index>  (355) 
9

>  <docking_score>  (355) 
-7.591

>  <rmsd_to_best_selected>  (355) 
1.8918996350886468

>  <MWT>  (355) 
349.3939999999997

>  <TPSA>  (355) 
81.92999999999999

>  <logP>  (355) 
3.8328000000000015

>  <HBD>  (355) 
1

>  <HBA>  (355) 
6

>  <SMILES>  (355) 
[H]c1nc(N([H])C(=O)c2nn(C3([H])C([H])([H])C([H])([H])C([H])([H])C3([H])[H])c([H])c2[H])nc([H])c1Oc1c([H])c([H])c([H])c([H])c1[H]

$$$$
Z31409736_pose4
     RDKit          3D

 53 55  0  0  0  0  0  0  0  0999 V2000
    3.4514   44.1615   54.4827 O   0  0  0  0  0  0  0  0  0  0  0  0
    4.0138   45.0605   53.8629 C   0  0  0  0  0  0  0  0  0  0  0  0
    4.1765   46.4543   54.4790 C   0  0  0  0  0  0  0  0  0  0  0  0
    5.1703   47.2300   53.7563 N   0  0  0  0  0  0  0  0  0  0  0  0
    6.4947   47.2195   54.1324 C   0  0  0  0  0  0  0  0  0  0  0  0
    6.8820   46.5779   55.1072 O   0  0  0  0  0  0  0  0  0  0  0  0
    7.4137   48.0274   53.2163 C   0  0  0  0  0  0  0  0  0  0  0  0
    8.6350   48.5741   53.9769 C   0  0  0  0  0  0  0  0  0  0  0  0
    9.8192   47.6154   53.9160 C   0  0  0  0  0  0  0  0  0  0  0  0
   10.2810   47.3654   52.4795 C   0  0  0  0  0  0  0  0  0  0  0  0
    9.1745   47.5560   51.4426 C   0  0  0  0  0  0  0  0  0  0  0  0
    7.8088   47.1740   51.9956 C   0  0  0  0  0  0  0  0  0  0  0  0
    4.5352   44.9868   52.5823 N   0  0  0  0  0  0  0  0  0  0  0  0
    4.5659   43.8772   51.7203 C   0  0  0  0  0  0  0  0  0  0  0  0
    3.3460   43.2454   51.4511 C   0  0  0  0  0  0  0  0  0  0  0  0
    3.2842   42.1323   50.6024 C   0  0  0  0  0  0  0  0  0  0  0  0
    4.4448   41.6347   50.0164 C   0  0  0  0  0  0  0  0  0  0  0  0
    4.5251   40.5696   49.1661 O   0  0  0  0  0  0  0  0  0  0  0  0
    5.3539   40.6923   48.0067 C   0  0  0  0  0  0  0  0  0  0  0  0
    4.7155   40.1479   46.7481 C   0  0  0  0  0  0  0  0  0  0  0  0
    4.5831   38.7614   46.5772 C   0  0  0  0  0  0  0  0  0  0  0  0
    4.0264   38.2407   45.4085 C   0  0  0  0  0  0  0  0  0  0  0  0
    3.6071   39.0978   44.3939 C   0  0  0  0  0  0  0  0  0  0  0  0
    3.7448   40.4749   44.5438 C   0  0  0  0  0  0  0  0  0  0  0  0
    4.3011   40.9976   45.7127 C   0  0  0  0  0  0  0  0  0  0  0  0
    5.6600   42.2750   50.2713 C   0  0  0  0  0  0  0  0  0  0  0  0
    5.7232   43.3863   51.1209 C   0  0  0  0  0  0  0  0  0  0  0  0
    3.2111   46.9801   54.4392 H   0  0  0  0  0  0  0  0  0  0  0  0
    4.5104   46.3403   55.5209 H   0  0  0  0  0  0  0  0  0  0  0  0
    4.9214   47.5639   52.8337 H   0  0  0  0  0  0  0  0  0  0  0  0
    6.8691   48.9103   52.8504 H   0  0  0  0  0  0  0  0  0  0  0  0
    8.9316   49.5345   53.5299 H   0  0  0  0  0  0  0  0  0  0  0  0
    8.3513   48.6987   55.0324 H   0  0  0  0  0  0  0  0  0  0  0  0
   10.6545   48.0460   54.4876 H   0  0  0  0  0  0  0  0  0  0  0  0
    9.4994   46.6531   54.3423 H   0  0  0  0  0  0  0  0  0  0  0  0
   11.0981   48.0649   52.2496 H   0  0  0  0  0  0  0  0  0  0  0  0
   10.6026   46.3151   52.4208 H   0  0  0  0  0  0  0  0  0  0  0  0
    9.1518   48.6123   51.1363 H   0  0  0  0  0  0  0  0  0  0  0  0
    9.3920   46.9004   50.5864 H   0  0  0  0  0  0  0  0  0  0  0  0
    7.0554   47.3148   51.2065 H   0  0  0  0  0  0  0  0  0  0  0  0
    7.8583   46.1241   52.3202 H   0  0  0  0  0  0  0  0  0  0  0  0
    4.8793   45.8691   52.1971 H   0  0  0  0  0  0  0  0  0  0  0  0
    2.4235   43.6280   51.9121 H   0  0  0  0  0  0  0  0  0  0  0  0
    2.3165   41.6505   50.3986 H   0  0  0  0  0  0  0  0  0  0  0  0
    5.5783   41.7578   47.8504 H   0  0  0  0  0  0  0  0  0  0  0  0
    6.2605   40.0978   48.1928 H   0  0  0  0  0  0  0  0  0  0  0  0
    4.9212   38.0793   47.3712 H   0  0  0  0  0  0  0  0  0  0  0  0
    3.9186   37.1526   45.2884 H   0  0  0  0  0  0  0  0  0  0  0  0
    3.1670   38.6863   43.4735 H   0  0  0  0  0  0  0  0  0  0  0  0
    3.4152   41.1512   43.7413 H   0  0  0  0  0  0  0  0  0  0  0  0
    4.4154   42.0861   45.8223 H   0  0  0  0  0  0  0  0  0  0  0  0
    6.5799   41.9010   49.7981 H   0  0  0  0  0  0  0  0  0  0  0  0
    6.6902   43.8732   51.3155 H   0  0  0  0  0  0  0  0  0  0  0  0
  1  2  2  0
  2  3  1  0
  3  4  1  0
  4  5  1  0
  5  6  2  0
  5  7  1  0
  7  8  1  0
  8  9  1  0
  9 10  1  0
 10 11  1  0
 11 12  1  0
  2 13  1  0
 13 14  1  0
 14 15  2  0
 15 16  1  0
 16 17  2  0
 17 18  1  0
 18 19  1  0
 19 20  1  0
 20 21  2  0
 21 22  1  0
 22 23  2  0
 23 24  1  0
 24 25  2  0
 17 26  1  0
 26 27  2  0
 12  7  1  0
 27 14  1  0
 25 20  1  0
  3 28  1  0
  3 29  1  0
  4 30  1  0
  7 31  1  0
  8 32  1  0
  8 33  1  0
  9 34  1  0
  9 35  1  0
 10 36  1  0
 10 37  1  0
 11 38  1  0
 11 39  1  0
 12 40  1  0
 12 41  1  0
 13 42  1  0
 15 43  1  0
 16 44  1  0
 19 45  1  0
 19 46  1  0
 21 47  1  0
 22 48  1  0
 23 49  1  0
 24 50  1  0
 25 51  1  0
 26 52  1  0
 27 53  1  0
M  END
>  <meeko>  (356) 
{"is_sidechain": false}

>  <CID>  (356) 
Z31409736

>  <pose_index>  (356) 
4

>  <docking_score>  (356) 
-8.866

>  <rmsd_to_best_selected>  (356) 
1.136852695363259

>  <MWT>  (356) 
366.4609999999997

>  <TPSA>  (356) 
67.43

>  <logP>  (356) 
3.9006000000000025

>  <HBD>  (356) 
2

>  <HBA>  (356) 
3

>  <SMILES>  (356) 
[H]c1c([H])c([H])c(C([H])([H])Oc2c([H])c([H])c(N([H])C(=O)C([H])([H])N([H])C(=O)C3([H])C([H])([H])C([H])([H])C([H])([H])C([H])([H])C3([H])[H])c([H])c2[H])c([H])c1[H]

$$$$
Z31409736_pose1
     RDKit          3D

 53 55  0  0  0  0  0  0  0  0999 V2000
    2.6530   44.6500   53.7640 O   0  0  0  0  0  0  0  0  0  0  0  0
    3.7450   45.2000   53.6470 C   0  0  0  0  0  0  0  0  0  0  0  0
    4.1050   46.4200   54.5020 C   0  0  0  0  0  0  0  0  0  0  0  0
    5.2190   47.1520   53.9230 N   0  0  0  0  0  0  0  0  0  0  0  0
    6.5180   46.8720   54.2810 C   0  0  0  0  0  0  0  0  0  0  0  0
    6.7850   46.0140   55.1200 O   0  0  0  0  0  0  0  0  0  0  0  0
    7.5670   47.6800   53.5180 C   0  0  0  0  0  0  0  0  0  0  0  0
    8.9210   47.6890   54.2500 C   0  0  0  0  0  0  0  0  0  0  0  0
    9.8220   46.5470   53.7940 C   0  0  0  0  0  0  0  0  0  0  0  0
   10.1390   46.6300   52.3000 C   0  0  0  0  0  0  0  0  0  0  0  0
    9.0690   47.3610   51.4890 C   0  0  0  0  0  0  0  0  0  0  0  0
    7.6780   47.1550   52.0740 C   0  0  0  0  0  0  0  0  0  0  0  0
    4.7580   44.8570   52.7670 N   0  0  0  0  0  0  0  0  0  0  0  0
    4.7810   43.8020   51.8390 C   0  0  0  0  0  0  0  0  0  0  0  0
    5.7510   43.8610   50.8300 C   0  0  0  0  0  0  0  0  0  0  0  0
    5.8460   42.8520   49.8630 C   0  0  0  0  0  0  0  0  0  0  0  0
    4.9670   41.7720   49.8920 C   0  0  0  0  0  0  0  0  0  0  0  0
    4.9570   40.7200   49.0220 O   0  0  0  0  0  0  0  0  0  0  0  0
    3.7810   40.5050   48.2360 C   0  0  0  0  0  0  0  0  0  0  0  0
    4.0350   40.5520   46.7450 C   0  0  0  0  0  0  0  0  0  0  0  0
    3.3670   39.6580   45.8960 C   0  0  0  0  0  0  0  0  0  0  0  0
    3.6140   39.6640   44.5230 C   0  0  0  0  0  0  0  0  0  0  0  0
    4.5390   40.5560   43.9850 C   0  0  0  0  0  0  0  0  0  0  0  0
    5.2200   41.4400   44.8180 C   0  0  0  0  0  0  0  0  0  0  0  0
    4.9730   41.4350   46.1920 C   0  0  0  0  0  0  0  0  0  0  0  0
    4.0120   41.7040   50.9070 C   0  0  0  0  0  0  0  0  0  0  0  0
    3.9140   42.7130   51.8730 C   0  0  0  0  0  0  0  0  0  0  0  0
    3.2314   47.0854   54.5650 H   0  0  0  0  0  0  0  0  0  0  0  0
    4.3975   46.0717   55.5036 H   0  0  0  0  0  0  0  0  0  0  0  0
    5.0420   47.6800   53.0780 H   0  0  0  0  0  0  0  0  0  0  0  0
    7.2443   48.7306   53.4724 H   0  0  0  0  0  0  0  0  0  0  0  0
    9.4279   48.6441   54.0481 H   0  0  0  0  0  0  0  0  0  0  0  0
    8.7277   47.5618   55.3254 H   0  0  0  0  0  0  0  0  0  0  0  0
   10.7642   46.5900   54.3601 H   0  0  0  0  0  0  0  0  0  0  0  0
    9.2912   45.6011   53.9771 H   0  0  0  0  0  0  0  0  0  0  0  0
   11.0939   47.1618   52.1758 H   0  0  0  0  0  0  0  0  0  0  0  0
   10.1835   45.5983   51.9210 H   0  0  0  0  0  0  0  0  0  0  0  0
    9.2980   48.4369   51.4851 H   0  0  0  0  0  0  0  0  0  0  0  0
    9.0748   46.9523   50.4678 H   0  0  0  0  0  0  0  0  0  0  0  0
    6.9481   47.6879   51.4469 H   0  0  0  0  0  0  0  0  0  0  0  0
    7.4779   46.0735   52.0930 H   0  0  0  0  0  0  0  0  0  0  0  0
    5.5580   45.4950   52.7490 H   0  0  0  0  0  0  0  0  0  0  0  0
    6.4478   44.7115   50.7966 H   0  0  0  0  0  0  0  0  0  0  0  0
    6.6159   42.9127   49.0797 H   0  0  0  0  0  0  0  0  0  0  0  0
    3.3695   39.5165   48.4882 H   0  0  0  0  0  0  0  0  0  0  0  0
    3.0811   41.3204   48.4710 H   0  0  0  0  0  0  0  0  0  0  0  0
    2.6418   38.9457   46.3163 H   0  0  0  0  0  0  0  0  0  0  0  0
    3.0782   38.9641   43.8649 H   0  0  0  0  0  0  0  0  0  0  0  0
    4.7315   40.5620   42.9020 H   0  0  0  0  0  0  0  0  0  0  0  0
    5.9525   42.1422   44.3934 H   0  0  0  0  0  0  0  0  0  0  0  0
    5.5192   42.1301   46.8466 H   0  0  0  0  0  0  0  0  0  0  0  0
    3.3260   40.8451   50.9490 H   0  0  0  0  0  0  0  0  0  0  0  0
    3.1497   42.6451   52.6612 H   0  0  0  0  0  0  0  0  0  0  0  0
  1  2  2  0
  2  3  1  0
  3  4  1  0
  4  5  1  0
  5  6  2  0
  5  7  1  0
  7  8  1  0
  8  9  1  0
  9 10  1  0
 10 11  1  0
 11 12  1  0
  2 13  1  0
 13 14  1  0
 14 15  2  0
 15 16  1  0
 16 17  2  0
 17 18  1  0
 18 19  1  0
 19 20  1  0
 20 21  2  0
 21 22  1  0
 22 23  2  0
 23 24  1  0
 24 25  2  0
 17 26  1  0
 26 27  2  0
 12  7  1  0
 27 14  1  0
 25 20  1  0
  3 28  1  0
  3 29  1  0
  4 30  1  0
  7 31  1  0
  8 32  1  0
  8 33  1  0
  9 34  1  0
  9 35  1  0
 10 36  1  0
 10 37  1  0
 11 38  1  0
 11 39  1  0
 12 40  1  0
 12 41  1  0
 13 42  1  0
 15 43  1  0
 16 44  1  0
 19 45  1  0
 19 46  1  0
 21 47  1  0
 22 48  1  0
 23 49  1  0
 24 50  1  0
 25 51  1  0
 26 52  1  0
 27 53  1  0
M  END
>  <meeko>  (357) 
{"is_sidechain": false}

>  <CID>  (357) 
Z31409736

>  <pose_index>  (357) 
1

>  <docking_score>  (357) 
-9.101

>  <rmsd_to_best_selected>  (357) 
0.0

>  <MWT>  (357) 
366.4609999999997

>  <TPSA>  (357) 
67.43

>  <logP>  (357) 
3.9006000000000025

>  <HBD>  (357) 
2

>  <HBA>  (357) 
3

>  <SMILES>  (357) 
[H]c1c([H])c([H])c(C([H])([H])Oc2c([H])c([H])c(N([H])C(=O)C([H])([H])N([H])C(=O)C3([H])C([H])([H])C([H])([H])C([H])([H])C([H])([H])C3([H])[H])c([H])c2[H])c([H])c1[H]

$$$$
Z31409736_pose7
     RDKit          3D

 53 55  0  0  0  0  0  0  0  0999 V2000
    5.8083   45.9772   49.9149 O   0  0  0  0  0  0  0  0  0  0  0  0
    4.9776   46.1498   50.8028 C   0  0  0  0  0  0  0  0  0  0  0  0
    5.0780   47.3540   51.7450 C   0  0  0  0  0  0  0  0  0  0  0  0
    6.2006   47.2103   52.6575 N   0  0  0  0  0  0  0  0  0  0  0  0
    6.5414   48.2172   53.5315 C   0  0  0  0  0  0  0  0  0  0  0  0
    5.9299   49.2828   53.5569 O   0  0  0  0  0  0  0  0  0  0  0  0
    7.6950   47.8678   54.4718 C   0  0  0  0  0  0  0  0  0  0  0  0
    8.1657   46.4151   54.2767 C   0  0  0  0  0  0  0  0  0  0  0  0
    9.2912   46.3147   53.2524 C   0  0  0  0  0  0  0  0  0  0  0  0
   10.5237   47.1150   53.6753 C   0  0  0  0  0  0  0  0  0  0  0  0
   10.2011   48.2872   54.6008 C   0  0  0  0  0  0  0  0  0  0  0  0
    8.8349   48.8889   54.2965 C   0  0  0  0  0  0  0  0  0  0  0  0
    3.9011   45.3344   51.1041 N   0  0  0  0  0  0  0  0  0  0  0  0
    3.4992   44.1527   50.4581 C   0  0  0  0  0  0  0  0  0  0  0  0
    4.3635   43.0546   50.5418 C   0  0  0  0  0  0  0  0  0  0  0  0
    4.0435   41.8370   49.9278 C   0  0  0  0  0  0  0  0  0  0  0  0
    2.8529   41.7055   49.2168 C   0  0  0  0  0  0  0  0  0  0  0  0
    2.4139   40.5789   48.5815 O   0  0  0  0  0  0  0  0  0  0  0  0
    3.2878   39.4477   48.5350 C   0  0  0  0  0  0  0  0  0  0  0  0
    4.2118   39.4499   47.3354 C   0  0  0  0  0  0  0  0  0  0  0  0
    5.5852   39.6743   47.5148 C   0  0  0  0  0  0  0  0  0  0  0  0
    6.4468   39.7124   46.4180 C   0  0  0  0  0  0  0  0  0  0  0  0
    5.9447   39.5389   45.1300 C   0  0  0  0  0  0  0  0  0  0  0  0
    4.5816   39.3299   44.9362 C   0  0  0  0  0  0  0  0  0  0  0  0
    3.7185   39.2909   46.0333 C   0  0  0  0  0  0  0  0  0  0  0  0
    1.9822   42.7950   49.1466 C   0  0  0  0  0  0  0  0  0  0  0  0
    2.3035   44.0132   49.7589 C   0  0  0  0  0  0  0  0  0  0  0  0
    5.2149   48.2675   51.1476 H   0  0  0  0  0  0  0  0  0  0  0  0
    4.1521   47.4145   52.3357 H   0  0  0  0  0  0  0  0  0  0  0  0
    6.5558   46.2765   52.8162 H   0  0  0  0  0  0  0  0  0  0  0  0
    7.3411   47.9311   55.5114 H   0  0  0  0  0  0  0  0  0  0  0  0
    8.5261   46.0256   55.2403 H   0  0  0  0  0  0  0  0  0  0  0  0
    7.3133   45.8275   53.9052 H   0  0  0  0  0  0  0  0  0  0  0  0
    9.5754   45.2580   53.1395 H   0  0  0  0  0  0  0  0  0  0  0  0
    8.9246   46.7317   52.3028 H   0  0  0  0  0  0  0  0  0  0  0  0
   11.2155   46.4385   54.1985 H   0  0  0  0  0  0  0  0  0  0  0  0
   10.9651   47.5371   52.7604 H   0  0  0  0  0  0  0  0  0  0  0  0
   10.2098   47.9318   55.6418 H   0  0  0  0  0  0  0  0  0  0  0  0
   10.9609   49.0667   54.4428 H   0  0  0  0  0  0  0  0  0  0  0  0
    8.6607   49.7343   54.9784 H   0  0  0  0  0  0  0  0  0  0  0  0
    8.8368   49.2145   53.2458 H   0  0  0  0  0  0  0  0  0  0  0  0
    3.3761   45.5923   51.9437 H   0  0  0  0  0  0  0  0  0  0  0  0
    5.3078   43.1493   51.0980 H   0  0  0  0  0  0  0  0  0  0  0  0
    4.7331   40.9837   50.0072 H   0  0  0  0  0  0  0  0  0  0  0  0
    3.9016   39.4437   49.4478 H   0  0  0  0  0  0  0  0  0  0  0  0
    2.6548   38.5517   48.4553 H   0  0  0  0  0  0  0  0  0  0  0  0
    5.9859   39.8215   48.5286 H   0  0  0  0  0  0  0  0  0  0  0  0
    7.5233   39.8796   46.5703 H   0  0  0  0  0  0  0  0  0  0  0  0
    6.6250   39.5670   44.2661 H   0  0  0  0  0  0  0  0  0  0  0  0
    4.1848   39.1955   43.9191 H   0  0  0  0  0  0  0  0  0  0  0  0
    2.6415   39.1339   45.8740 H   0  0  0  0  0  0  0  0  0  0  0  0
    1.0310   42.6952   48.6031 H   0  0  0  0  0  0  0  0  0  0  0  0
    1.6085   44.8628   49.6870 H   0  0  0  0  0  0  0  0  0  0  0  0
  1  2  2  0
  2  3  1  0
  3  4  1  0
  4  5  1  0
  5  6  2  0
  5  7  1  0
  7  8  1  0
  8  9  1  0
  9 10  1  0
 10 11  1  0
 11 12  1  0
  2 13  1  0
 13 14  1  0
 14 15  2  0
 15 16  1  0
 16 17  2  0
 17 18  1  0
 18 19  1  0
 19 20  1  0
 20 21  2  0
 21 22  1  0
 22 23  2  0
 23 24  1  0
 24 25  2  0
 17 26  1  0
 26 27  2  0
 12  7  1  0
 27 14  1  0
 25 20  1  0
  3 28  1  0
  3 29  1  0
  4 30  1  0
  7 31  1  0
  8 32  1  0
  8 33  1  0
  9 34  1  0
  9 35  1  0
 10 36  1  0
 10 37  1  0
 11 38  1  0
 11 39  1  0
 12 40  1  0
 12 41  1  0
 13 42  1  0
 15 43  1  0
 16 44  1  0
 19 45  1  0
 19 46  1  0
 21 47  1  0
 22 48  1  0
 23 49  1  0
 24 50  1  0
 25 51  1  0
 26 52  1  0
 27 53  1  0
M  END
>  <meeko>  (358) 
{"is_sidechain": false}

>  <CID>  (358) 
Z31409736

>  <pose_index>  (358) 
7

>  <docking_score>  (358) 
-8.71

>  <rmsd_to_best_selected>  (358) 
1.894368864504329

>  <MWT>  (358) 
366.4609999999997

>  <TPSA>  (358) 
67.43

>  <logP>  (358) 
3.9006000000000025

>  <HBD>  (358) 
2

>  <HBA>  (358) 
3

>  <SMILES>  (358) 
[H]c1c([H])c([H])c(C([H])([H])Oc2c([H])c([H])c(N([H])C(=O)C([H])([H])N([H])C(=O)C3([H])C([H])([H])C([H])([H])C([H])([H])C([H])([H])C3([H])[H])c([H])c2[H])c([H])c1[H]

$$$$
Z31409736_pose9
     RDKit          3D

 53 55  0  0  0  0  0  0  0  0999 V2000
    4.3800   45.0835   53.4456 O   0  0  0  0  0  0  0  0  0  0  0  0
    4.3541   45.9641   52.5909 C   0  0  0  0  0  0  0  0  0  0  0  0
    4.4887   47.4393   52.9827 C   0  0  0  0  0  0  0  0  0  0  0  0
    5.8683   47.7721   53.2992 N   0  0  0  0  0  0  0  0  0  0  0  0
    6.3231   47.7582   54.5984 C   0  0  0  0  0  0  0  0  0  0  0  0
    5.5792   47.4930   55.5391 O   0  0  0  0  0  0  0  0  0  0  0  0
    7.8156   48.0542   54.7424 C   0  0  0  0  0  0  0  0  0  0  0  0
    8.6240   46.7743   55.0207 C   0  0  0  0  0  0  0  0  0  0  0  0
    9.1246   46.1255   53.7348 C   0  0  0  0  0  0  0  0  0  0  0  0
   10.0469   47.0559   52.9457 C   0  0  0  0  0  0  0  0  0  0  0  0
    9.7865   48.5394   53.2081 C   0  0  0  0  0  0  0  0  0  0  0  0
    8.3170   48.8120   53.4983 C   0  0  0  0  0  0  0  0  0  0  0  0
    4.1848   45.7958   51.2273 N   0  0  0  0  0  0  0  0  0  0  0  0
    4.0320   44.5947   50.5139 C   0  0  0  0  0  0  0  0  0  0  0  0
    2.7255   44.2025   50.1967 C   0  0  0  0  0  0  0  0  0  0  0  0
    2.4798   43.0201   49.4879 C   0  0  0  0  0  0  0  0  0  0  0  0
    3.5413   42.2102   49.0914 C   0  0  0  0  0  0  0  0  0  0  0  0
    3.4456   41.0434   48.3894 O   0  0  0  0  0  0  0  0  0  0  0  0
    4.6124   40.2239   48.2798 C   0  0  0  0  0  0  0  0  0  0  0  0
    4.6841   39.4474   46.9831 C   0  0  0  0  0  0  0  0  0  0  0  0
    3.5183   38.8865   46.4402 C   0  0  0  0  0  0  0  0  0  0  0  0
    3.5713   38.1393   45.2627 C   0  0  0  0  0  0  0  0  0  0  0  0
    4.7910   37.9350   44.6214 C   0  0  0  0  0  0  0  0  0  0  0  0
    5.9583   38.4748   45.1559 C   0  0  0  0  0  0  0  0  0  0  0  0
    5.9068   39.2220   46.3335 C   0  0  0  0  0  0  0  0  0  0  0  0
    4.8455   42.6090   49.3928 C   0  0  0  0  0  0  0  0  0  0  0  0
    5.0918   43.7895   50.1025 C   0  0  0  0  0  0  0  0  0  0  0  0
    4.1511   48.0661   52.1442 H   0  0  0  0  0  0  0  0  0  0  0  0
    3.8714   47.6221   53.8746 H   0  0  0  0  0  0  0  0  0  0  0  0
    6.5373   47.7589   52.5405 H   0  0  0  0  0  0  0  0  0  0  0  0
    7.9685   48.7020   55.6181 H   0  0  0  0  0  0  0  0  0  0  0  0
    9.4893   47.0302   55.6498 H   0  0  0  0  0  0  0  0  0  0  0  0
    7.9620   46.0573   55.5283 H   0  0  0  0  0  0  0  0  0  0  0  0
    9.6782   45.2101   53.9909 H   0  0  0  0  0  0  0  0  0  0  0  0
    8.2511   45.8992   53.1058 H   0  0  0  0  0  0  0  0  0  0  0  0
   11.0876   46.8309   53.2220 H   0  0  0  0  0  0  0  0  0  0  0  0
    9.8505   46.8769   51.8782 H   0  0  0  0  0  0  0  0  0  0  0  0
   10.3857   48.8586   54.0736 H   0  0  0  0  0  0  0  0  0  0  0  0
   10.0669   49.1011   52.3049 H   0  0  0  0  0  0  0  0  0  0  0  0
    8.1835   49.8912   53.6641 H   0  0  0  0  0  0  0  0  0  0  0  0
    7.7331   48.4627   52.6340 H   0  0  0  0  0  0  0  0  0  0  0  0
    4.0935   46.6585   50.6857 H   0  0  0  0  0  0  0  0  0  0  0  0
    1.8797   44.8327   50.5089 H   0  0  0  0  0  0  0  0  0  0  0  0
    1.4470   42.7304   49.2440 H   0  0  0  0  0  0  0  0  0  0  0  0
    5.4998   40.8703   48.3482 H   0  0  0  0  0  0  0  0  0  0  0  0
    4.5690   39.4878   49.0961 H   0  0  0  0  0  0  0  0  0  0  0  0
    2.5539   39.0371   46.9473 H   0  0  0  0  0  0  0  0  0  0  0  0
    2.6498   37.7116   44.8409 H   0  0  0  0  0  0  0  0  0  0  0  0
    4.8321   37.3473   43.6925 H   0  0  0  0  0  0  0  0  0  0  0  0
    6.9213   38.3121   44.6496 H   0  0  0  0  0  0  0  0  0  0  0  0
    6.8333   39.6379   46.7561 H   0  0  0  0  0  0  0  0  0  0  0  0
    5.6916   41.9858   49.0675 H   0  0  0  0  0  0  0  0  0  0  0  0
    6.1258   44.0827   50.3365 H   0  0  0  0  0  0  0  0  0  0  0  0
  1  2  2  0
  2  3  1  0
  3  4  1  0
  4  5  1  0
  5  6  2  0
  5  7  1  0
  7  8  1  0
  8  9  1  0
  9 10  1  0
 10 11  1  0
 11 12  1  0
  2 13  1  0
 13 14  1  0
 14 15  2  0
 15 16  1  0
 16 17  2  0
 17 18  1  0
 18 19  1  0
 19 20  1  0
 20 21  2  0
 21 22  1  0
 22 23  2  0
 23 24  1  0
 24 25  2  0
 17 26  1  0
 26 27  2  0
 12  7  1  0
 27 14  1  0
 25 20  1  0
  3 28  1  0
  3 29  1  0
  4 30  1  0
  7 31  1  0
  8 32  1  0
  8 33  1  0
  9 34  1  0
  9 35  1  0
 10 36  1  0
 10 37  1  0
 11 38  1  0
 11 39  1  0
 12 40  1  0
 12 41  1  0
 13 42  1  0
 15 43  1  0
 16 44  1  0
 19 45  1  0
 19 46  1  0
 21 47  1  0
 22 48  1  0
 23 49  1  0
 24 50  1  0
 25 51  1  0
 26 52  1  0
 27 53  1  0
M  END
>  <meeko>  (359) 
{"is_sidechain": false}

>  <CID>  (359) 
Z31409736

>  <pose_index>  (359) 
9

>  <docking_score>  (359) 
-8.53

>  <rmsd_to_best_selected>  (359) 
1.7156906084345125

>  <MWT>  (359) 
366.4609999999997

>  <TPSA>  (359) 
67.43

>  <logP>  (359) 
3.9006000000000025

>  <HBD>  (359) 
2

>  <HBA>  (359) 
3

>  <SMILES>  (359) 
[H]c1c([H])c([H])c(C([H])([H])Oc2c([H])c([H])c(N([H])C(=O)C([H])([H])N([H])C(=O)C3([H])C([H])([H])C([H])([H])C([H])([H])C([H])([H])C3([H])[H])c([H])c2[H])c([H])c1[H]

$$$$
Z31409736_pose10
     RDKit          3D

 53 55  0  0  0  0  0  0  0  0999 V2000
    2.9435   47.3033   51.3521 O   0  0  0  0  0  0  0  0  0  0  0  0
    3.7226   46.6747   52.0634 C   0  0  0  0  0  0  0  0  0  0  0  0
    4.2482   47.2752   53.3715 C   0  0  0  0  0  0  0  0  0  0  0  0
    5.6550   46.9629   53.5610 N   0  0  0  0  0  0  0  0  0  0  0  0
    6.4797   47.7994   54.2792 C   0  0  0  0  0  0  0  0  0  0  0  0
    6.0676   48.8514   54.7630 O   0  0  0  0  0  0  0  0  0  0  0  0
    7.9068   47.2797   54.4479 C   0  0  0  0  0  0  0  0  0  0  0  0
    8.1441   45.9985   53.6284 C   0  0  0  0  0  0  0  0  0  0  0  0
    8.6801   46.3052   52.2335 C   0  0  0  0  0  0  0  0  0  0  0  0
   10.0202   47.0396   52.2837 C   0  0  0  0  0  0  0  0  0  0  0  0
   10.2240   47.8477   53.5656 C   0  0  0  0  0  0  0  0  0  0  0  0
    8.9091   48.3972   54.1038 C   0  0  0  0  0  0  0  0  0  0  0  0
    4.2478   45.4184   51.8139 N   0  0  0  0  0  0  0  0  0  0  0  0
    3.9928   44.5726   50.7204 C   0  0  0  0  0  0  0  0  0  0  0  0
    5.0493   44.3466   49.8293 C   0  0  0  0  0  0  0  0  0  0  0  0
    4.8854   43.5177   48.7122 C   0  0  0  0  0  0  0  0  0  0  0  0
    3.6567   42.9079   48.4698 C   0  0  0  0  0  0  0  0  0  0  0  0
    3.3634   42.0719   47.4302 O   0  0  0  0  0  0  0  0  0  0  0  0
    3.1259   40.6922   47.7209 C   0  0  0  0  0  0  0  0  0  0  0  0
    4.2281   39.7757   47.2350 C   0  0  0  0  0  0  0  0  0  0  0  0
    5.4452   40.3195   46.7985 C   0  0  0  0  0  0  0  0  0  0  0  0
    6.4599   39.4918   46.3172 C   0  0  0  0  0  0  0  0  0  0  0  0
    6.2654   38.1139   46.2561 C   0  0  0  0  0  0  0  0  0  0  0  0
    5.0572   37.5617   46.6740 C   0  0  0  0  0  0  0  0  0  0  0  0
    4.0418   38.3883   47.1564 C   0  0  0  0  0  0  0  0  0  0  0  0
    2.6078   43.1193   49.3665 C   0  0  0  0  0  0  0  0  0  0  0  0
    2.7707   43.9496   50.4826 C   0  0  0  0  0  0  0  0  0  0  0  0
    4.1233   48.3677   53.3413 H   0  0  0  0  0  0  0  0  0  0  0  0
    3.6783   46.8447   54.2081 H   0  0  0  0  0  0  0  0  0  0  0  0
    5.9499   46.0120   53.3825 H   0  0  0  0  0  0  0  0  0  0  0  0
    8.0632   46.9966   55.4992 H   0  0  0  0  0  0  0  0  0  0  0  0
    8.8728   45.3675   54.1584 H   0  0  0  0  0  0  0  0  0  0  0  0
    7.1792   45.4823   53.5165 H   0  0  0  0  0  0  0  0  0  0  0  0
    8.8139   45.3591   51.6884 H   0  0  0  0  0  0  0  0  0  0  0  0
    7.9539   46.9573   51.7261 H   0  0  0  0  0  0  0  0  0  0  0  0
   10.8277   46.2966   52.2082 H   0  0  0  0  0  0  0  0  0  0  0  0
   10.0304   47.7527   51.4462 H   0  0  0  0  0  0  0  0  0  0  0  0
   10.6766   47.1970   54.3284 H   0  0  0  0  0  0  0  0  0  0  0  0
   10.8801   48.6992   53.3321 H   0  0  0  0  0  0  0  0  0  0  0  0
    9.1151   48.9803   55.0135 H   0  0  0  0  0  0  0  0  0  0  0  0
    8.4594   49.0233   53.3191 H   0  0  0  0  0  0  0  0  0  0  0  0
    4.9580   45.0987   52.4773 H   0  0  0  0  0  0  0  0  0  0  0  0
    6.0223   44.8272   50.0093 H   0  0  0  0  0  0  0  0  0  0  0  0
    5.7279   43.3480   48.0256 H   0  0  0  0  0  0  0  0  0  0  0  0
    3.0321   40.5769   48.8108 H   0  0  0  0  0  0  0  0  0  0  0  0
    2.2065   40.4028   47.1909 H   0  0  0  0  0  0  0  0  0  0  0  0
    5.6009   41.4078   46.8359 H   0  0  0  0  0  0  0  0  0  0  0  0
    7.4141   39.9275   45.9858 H   0  0  0  0  0  0  0  0  0  0  0  0
    7.0663   37.4618   45.8777 H   0  0  0  0  0  0  0  0  0  0  0  0
    4.9033   36.4737   46.6238 H   0  0  0  0  0  0  0  0  0  0  0  0
    3.0866   37.9475   47.4779 H   0  0  0  0  0  0  0  0  0  0  0  0
    1.6395   42.6267   49.1940 H   0  0  0  0  0  0  0  0  0  0  0  0
    1.9301   44.1101   51.1737 H   0  0  0  0  0  0  0  0  0  0  0  0
  1  2  2  0
  2  3  1  0
  3  4  1  0
  4  5  1  0
  5  6  2  0
  5  7  1  0
  7  8  1  0
  8  9  1  0
  9 10  1  0
 10 11  1  0
 11 12  1  0
  2 13  1  0
 13 14  1  0
 14 15  2  0
 15 16  1  0
 16 17  2  0
 17 18  1  0
 18 19  1  0
 19 20  1  0
 20 21  2  0
 21 22  1  0
 22 23  2  0
 23 24  1  0
 24 25  2  0
 17 26  1  0
 26 27  2  0
 12  7  1  0
 27 14  1  0
 25 20  1  0
  3 28  1  0
  3 29  1  0
  4 30  1  0
  7 31  1  0
  8 32  1  0
  8 33  1  0
  9 34  1  0
  9 35  1  0
 10 36  1  0
 10 37  1  0
 11 38  1  0
 11 39  1  0
 12 40  1  0
 12 41  1  0
 13 42  1  0
 15 43  1  0
 16 44  1  0
 19 45  1  0
 19 46  1  0
 21 47  1  0
 22 48  1  0
 23 49  1  0
 24 50  1  0
 25 51  1  0
 26 52  1  0
 27 53  1  0
M  END
>  <meeko>  (360) 
{"is_sidechain": false}

>  <CID>  (360) 
Z31409736

>  <pose_index>  (360) 
10

>  <docking_score>  (360) 
-8.446

>  <rmsd_to_best_selected>  (360) 
1.731291158543812

>  <MWT>  (360) 
366.4609999999997

>  <TPSA>  (360) 
67.43

>  <logP>  (360) 
3.9006000000000025

>  <HBD>  (360) 
2

>  <HBA>  (360) 
3

>  <SMILES>  (360) 
[H]c1c([H])c([H])c(C([H])([H])Oc2c([H])c([H])c(N([H])C(=O)C([H])([H])N([H])C(=O)C3([H])C([H])([H])C([H])([H])C([H])([H])C([H])([H])C3([H])[H])c([H])c2[H])c([H])c1[H]

$$$$
Z321303522_pose5
     RDKit          3D

 45 48  0  0  0  0  0  0  0  0999 V2000
    3.4317   46.3545   52.9479 O   0  0  0  0  0  0  0  0  0  0  0  0
    3.1703   45.1765   53.1646 C   0  0  0  0  0  0  0  0  0  0  0  0
    3.8228   44.0940   52.6082 N   0  0  0  0  0  0  0  0  0  0  0  0
    4.9017   44.1031   51.6954 C   0  0  0  0  0  0  0  0  0  0  0  0
    4.7570   43.9544   50.3160 C   0  0  0  0  0  0  0  0  0  0  0  0
    5.8800   43.9733   49.4859 C   0  0  0  0  0  0  0  0  0  0  0  0
    7.1508   44.1389   50.0306 C   0  0  0  0  0  0  0  0  0  0  0  0
    7.3164   44.2901   51.4075 C   0  0  0  0  0  0  0  0  0  0  0  0
    8.6148   44.4389   51.8056 O   0  0  0  0  0  0  0  0  0  0  0  0
    9.2966   45.6517   51.4896 C   0  0  0  0  0  0  0  0  0  0  0  0
    8.9510   46.7788   52.4723 C   0  0  0  0  0  0  0  0  0  0  0  0
    9.9924   46.9646   53.5700 C   0  0  0  0  0  0  0  0  0  0  0  0
   10.8841   48.0414   53.0029 C   0  0  0  0  0  0  0  0  0  0  0  0
    9.8935   48.9061   52.2587 C   0  0  0  0  0  0  0  0  0  0  0  0
    8.8840   48.0236   51.7486 O   0  0  0  0  0  0  0  0  0  0  0  0
    6.1892   44.2712   52.2344 C   0  0  0  0  0  0  0  0  0  0  0  0
    2.0925   44.8245   54.0756 C   0  0  0  0  0  0  0  0  0  0  0  0
    1.9608   44.8719   55.4538 C   0  0  0  0  0  0  0  0  0  0  0  0
    0.6649   44.3959   55.8008 C   0  0  0  0  0  0  0  0  0  0  0  0
   -0.0195   44.2182   57.0186 C   0  0  0  0  0  0  0  0  0  0  0  0
   -1.3250   43.7123   57.0003 C   0  0  0  0  0  0  0  0  0  0  0  0
   -1.9451   43.3863   55.7959 C   0  0  0  0  0  0  0  0  0  0  0  0
   -1.2837   43.5553   54.5764 C   0  0  0  0  0  0  0  0  0  0  0  0
    0.0195   44.0617   54.6127 C   0  0  0  0  0  0  0  0  0  0  0  0
    0.8982   44.3283   53.5931 N   0  0  0  0  0  0  0  0  0  0  0  0
    3.4922   43.1826   52.8859 H   0  0  0  0  0  0  0  0  0  0  0  0
    3.7555   43.8219   49.8808 H   0  0  0  0  0  0  0  0  0  0  0  0
    5.7602   43.8570   48.3987 H   0  0  0  0  0  0  0  0  0  0  0  0
    8.0305   44.1505   49.3703 H   0  0  0  0  0  0  0  0  0  0  0  0
   10.3807   45.4694   51.5255 H   0  0  0  0  0  0  0  0  0  0  0  0
    8.9791   45.9679   50.4850 H   0  0  0  0  0  0  0  0  0  0  0  0
    7.9954   46.5004   52.9405 H   0  0  0  0  0  0  0  0  0  0  0  0
    9.5239   47.2919   54.5099 H   0  0  0  0  0  0  0  0  0  0  0  0
   10.5314   46.0392   53.8214 H   0  0  0  0  0  0  0  0  0  0  0  0
   11.3873   48.6061   53.8016 H   0  0  0  0  0  0  0  0  0  0  0  0
   11.6998   47.6570   52.3729 H   0  0  0  0  0  0  0  0  0  0  0  0
    9.4446   49.6428   52.9410 H   0  0  0  0  0  0  0  0  0  0  0  0
   10.3833   49.4620   51.4455 H   0  0  0  0  0  0  0  0  0  0  0  0
    6.3113   44.3894   53.3212 H   0  0  0  0  0  0  0  0  0  0  0  0
    2.7284   45.2191   56.1611 H   0  0  0  0  0  0  0  0  0  0  0  0
    0.4655   44.4735   57.9723 H   0  0  0  0  0  0  0  0  0  0  0  0
   -1.8669   43.5708   57.9471 H   0  0  0  0  0  0  0  0  0  0  0  0
   -2.9712   42.9899   55.8051 H   0  0  0  0  0  0  0  0  0  0  0  0
   -1.7700   43.2995   53.6234 H   0  0  0  0  0  0  0  0  0  0  0  0
    0.7132   44.1858   52.6069 H   0  0  0  0  0  0  0  0  0  0  0  0
  1  2  2  0
  2  3  1  0
  3  4  1  0
  4  5  2  0
  5  6  1  0
  6  7  2  0
  7  8  1  0
  8  9  1  0
  9 10  1  0
 10 11  1  0
 11 12  1  0
 12 13  1  0
 13 14  1  0
 14 15  1  0
  8 16  2  0
  2 17  1  0
 17 18  2  0
 18 19  1  0
 19 20  2  0
 20 21  1  0
 21 22  2  0
 22 23  1  0
 23 24  2  0
 24 25  1  0
 16  4  1  0
 25 17  1  0
 15 11  1  0
 24 19  1  0
  3 26  1  0
  5 27  1  0
  6 28  1  0
  7 29  1  0
 10 30  1  0
 10 31  1  0
 11 32  1  0
 12 33  1  0
 12 34  1  0
 13 35  1  0
 13 36  1  0
 14 37  1  0
 14 38  1  0
 16 39  1  0
 18 40  1  0
 20 41  1  0
 21 42  1  0
 22 43  1  0
 23 44  1  0
 25 45  1  0
M  END
>  <meeko>  (361) 
{"is_sidechain": false}

>  <CID>  (361) 
Z321303522

>  <pose_index>  (361) 
5

>  <docking_score>  (361) 
-8.319

>  <rmsd_to_best_selected>  (361) 
1.8991925728640509

>  <MWT>  (361) 
336.3909999999996

>  <TPSA>  (361) 
63.35

>  <logP>  (361) 
3.9780000000000024

>  <HBD>  (361) 
2

>  <HBA>  (361) 
3

>  <SMILES>  (361) 
[H]c1c([H])c(OC([H])([H])C2([H])OC([H])([H])C([H])([H])C2([H])[H])c([H])c(N([H])C(=O)c2c([H])c3c([H])c([H])c([H])c([H])c3n2[H])c1[H]

$$$$
Z321303522_pose3
     RDKit          3D

 45 48  0  0  0  0  0  0  0  0999 V2000
    5.1540   44.6498   54.2014 O   0  0  0  0  0  0  0  0  0  0  0  0
    4.0871   44.5567   53.6044 C   0  0  0  0  0  0  0  0  0  0  0  0
    3.9390   44.4479   52.2362 N   0  0  0  0  0  0  0  0  0  0  0  0
    4.9512   44.4214   51.2508 C   0  0  0  0  0  0  0  0  0  0  0  0
    4.9903   43.5074   50.1970 C   0  0  0  0  0  0  0  0  0  0  0  0
    6.0310   43.5500   49.2667 C   0  0  0  0  0  0  0  0  0  0  0  0
    7.0383   44.5046   49.3874 C   0  0  0  0  0  0  0  0  0  0  0  0
    7.0165   45.4283   50.4338 C   0  0  0  0  0  0  0  0  0  0  0  0
    8.0664   46.3016   50.4340 O   0  0  0  0  0  0  0  0  0  0  0  0
    9.2692   45.9335   51.1104 C   0  0  0  0  0  0  0  0  0  0  0  0
    9.7567   47.0379   52.0579 C   0  0  0  0  0  0  0  0  0  0  0  0
    8.6277   47.7182   52.8241 C   0  0  0  0  0  0  0  0  0  0  0  0
    8.5881   46.9402   54.1170 C   0  0  0  0  0  0  0  0  0  0  0  0
   10.0510   46.6333   54.3403 C   0  0  0  0  0  0  0  0  0  0  0  0
   10.6335   46.4530   53.0422 O   0  0  0  0  0  0  0  0  0  0  0  0
    5.9723   45.3807   51.3609 C   0  0  0  0  0  0  0  0  0  0  0  0
    2.8354   44.5549   54.3454 C   0  0  0  0  0  0  0  0  0  0  0  0
    2.5007   44.9036   55.6449 C   0  0  0  0  0  0  0  0  0  0  0  0
    1.1039   44.6969   55.8235 C   0  0  0  0  0  0  0  0  0  0  0  0
    0.2176   44.8715   56.9025 C   0  0  0  0  0  0  0  0  0  0  0  0
   -1.1370   44.5616   56.7326 C   0  0  0  0  0  0  0  0  0  0  0  0
   -1.6092   44.0850   55.5114 C   0  0  0  0  0  0  0  0  0  0  0  0
   -0.7466   43.9044   54.4266 C   0  0  0  0  0  0  0  0  0  0  0  0
    0.6031   44.2186   54.6142 C   0  0  0  0  0  0  0  0  0  0  0  0
    1.6625   44.1437   53.7450 N   0  0  0  0  0  0  0  0  0  0  0  0
    2.9933   44.3786   51.8931 H   0  0  0  0  0  0  0  0  0  0  0  0
    4.1983   42.7505   50.0987 H   0  0  0  0  0  0  0  0  0  0  0  0
    6.0553   42.8282   48.4369 H   0  0  0  0  0  0  0  0  0  0  0  0
    7.8568   44.5306   48.6530 H   0  0  0  0  0  0  0  0  0  0  0  0
    9.0828   45.0206   51.6952 H   0  0  0  0  0  0  0  0  0  0  0  0
   10.0486   45.7678   50.3521 H   0  0  0  0  0  0  0  0  0  0  0  0
   10.2553   47.7902   51.4291 H   0  0  0  0  0  0  0  0  0  0  0  0
    8.8549   48.7789   53.0063 H   0  0  0  0  0  0  0  0  0  0  0  0
    7.6697   47.7153   52.2835 H   0  0  0  0  0  0  0  0  0  0  0  0
    8.1768   47.5474   54.9369 H   0  0  0  0  0  0  0  0  0  0  0  0
    7.9470   46.0472   54.0792 H   0  0  0  0  0  0  0  0  0  0  0  0
   10.5390   47.4693   54.8627 H   0  0  0  0  0  0  0  0  0  0  0  0
   10.1779   45.7341   54.9611 H   0  0  0  0  0  0  0  0  0  0  0  0
    5.9492   46.1044   52.1889 H   0  0  0  0  0  0  0  0  0  0  0  0
    3.1977   45.2772   56.4096 H   0  0  0  0  0  0  0  0  0  0  0  0
    0.5851   45.2473   57.8688 H   0  0  0  0  0  0  0  0  0  0  0  0
   -1.8356   44.6956   57.5716 H   0  0  0  0  0  0  0  0  0  0  0  0
   -2.6773   43.8473   55.3994 H   0  0  0  0  0  0  0  0  0  0  0  0
   -1.1158   43.5289   53.4608 H   0  0  0  0  0  0  0  0  0  0  0  0
    1.6117   43.8282   52.7841 H   0  0  0  0  0  0  0  0  0  0  0  0
  1  2  2  0
  2  3  1  0
  3  4  1  0
  4  5  2  0
  5  6  1  0
  6  7  2  0
  7  8  1  0
  8  9  1  0
  9 10  1  0
 10 11  1  0
 11 12  1  0
 12 13  1  0
 13 14  1  0
 14 15  1  0
  8 16  2  0
  2 17  1  0
 17 18  2  0
 18 19  1  0
 19 20  2  0
 20 21  1  0
 21 22  2  0
 22 23  1  0
 23 24  2  0
 24 25  1  0
 16  4  1  0
 25 17  1  0
 15 11  1  0
 24 19  1  0
  3 26  1  0
  5 27  1  0
  6 28  1  0
  7 29  1  0
 10 30  1  0
 10 31  1  0
 11 32  1  0
 12 33  1  0
 12 34  1  0
 13 35  1  0
 13 36  1  0
 14 37  1  0
 14 38  1  0
 16 39  1  0
 18 40  1  0
 20 41  1  0
 21 42  1  0
 22 43  1  0
 23 44  1  0
 25 45  1  0
M  END
>  <meeko>  (362) 
{"is_sidechain": false}

>  <CID>  (362) 
Z321303522

>  <pose_index>  (362) 
3

>  <docking_score>  (362) 
-8.584

>  <rmsd_to_best_selected>  (362) 
0.0

>  <MWT>  (362) 
336.3909999999996

>  <TPSA>  (362) 
63.35

>  <logP>  (362) 
3.9780000000000024

>  <HBD>  (362) 
2

>  <HBA>  (362) 
3

>  <SMILES>  (362) 
[H]c1c([H])c(OC([H])([H])C2([H])OC([H])([H])C([H])([H])C2([H])[H])c([H])c(N([H])C(=O)c2c([H])c3c([H])c([H])c([H])c([H])c3n2[H])c1[H]

$$$$
Z321303522_pose4
     RDKit          3D

 45 48  0  0  0  0  0  0  0  0999 V2000
    3.7204   46.6045   52.3118 O   0  0  0  0  0  0  0  0  0  0  0  0
    3.5629   45.4630   52.7327 C   0  0  0  0  0  0  0  0  0  0  0  0
    4.2493   44.3461   52.2992 N   0  0  0  0  0  0  0  0  0  0  0  0
    5.2523   44.2715   51.3086 C   0  0  0  0  0  0  0  0  0  0  0  0
    5.0184   43.8837   49.9889 C   0  0  0  0  0  0  0  0  0  0  0  0
    6.0705   43.8342   49.0717 C   0  0  0  0  0  0  0  0  0  0  0  0
    7.3618   44.1713   49.4714 C   0  0  0  0  0  0  0  0  0  0  0  0
    7.6174   44.5634   50.7863 C   0  0  0  0  0  0  0  0  0  0  0  0
    8.9263   44.8603   51.0406 O   0  0  0  0  0  0  0  0  0  0  0  0
    9.3288   46.2294   51.0645 C   0  0  0  0  0  0  0  0  0  0  0  0
    9.7559   46.6788   52.4678 C   0  0  0  0  0  0  0  0  0  0  0  0
    8.9385   47.8496   53.0031 C   0  0  0  0  0  0  0  0  0  0  0  0
    7.8553   47.1625   53.7984 C   0  0  0  0  0  0  0  0  0  0  0  0
    8.5957   45.9758   54.3701 C   0  0  0  0  0  0  0  0  0  0  0  0
    9.5628   45.5843   53.3862 O   0  0  0  0  0  0  0  0  0  0  0  0
    6.5590   44.6110   51.6994 C   0  0  0  0  0  0  0  0  0  0  0  0
    2.5845   45.2002   53.7759 C   0  0  0  0  0  0  0  0  0  0  0  0
    2.4328   45.6636   55.0734 C   0  0  0  0  0  0  0  0  0  0  0  0
    1.2751   45.0557   55.6381 C   0  0  0  0  0  0  0  0  0  0  0  0
    0.6381   45.1386   56.8903 C   0  0  0  0  0  0  0  0  0  0  0  0
   -0.5187   44.3823   57.1200 C   0  0  0  0  0  0  0  0  0  0  0  0
   -1.0361   43.5541   56.1253 C   0  0  0  0  0  0  0  0  0  0  0  0
   -0.4184   43.4582   54.8748 C   0  0  0  0  0  0  0  0  0  0  0  0
    0.7348   44.2210   54.6626 C   0  0  0  0  0  0  0  0  0  0  0  0
    1.5391   44.3259   53.5558 N   0  0  0  0  0  0  0  0  0  0  0  0
    4.0076   43.4732   52.7445 H   0  0  0  0  0  0  0  0  0  0  0  0
    4.0005   43.6158   49.6693 H   0  0  0  0  0  0  0  0  0  0  0  0
    5.8793   43.5287   48.0325 H   0  0  0  0  0  0  0  0  0  0  0  0
    8.1866   44.1280   48.7449 H   0  0  0  0  0  0  0  0  0  0  0  0
   10.1762   46.3625   50.3758 H   0  0  0  0  0  0  0  0  0  0  0  0
    8.4677   46.8420   50.7590 H   0  0  0  0  0  0  0  0  0  0  0  0
   10.8066   46.9939   52.3867 H   0  0  0  0  0  0  0  0  0  0  0  0
    9.5505   48.4997   53.6456 H   0  0  0  0  0  0  0  0  0  0  0  0
    8.5486   48.5073   52.2122 H   0  0  0  0  0  0  0  0  0  0  0  0
    7.4687   47.8149   54.5952 H   0  0  0  0  0  0  0  0  0  0  0  0
    6.9708   46.8908   53.2036 H   0  0  0  0  0  0  0  0  0  0  0  0
    9.0994   46.2577   55.3065 H   0  0  0  0  0  0  0  0  0  0  0  0
    7.9057   45.1502   54.5991 H   0  0  0  0  0  0  0  0  0  0  0  0
    6.7519   44.9183   52.7379 H   0  0  0  0  0  0  0  0  0  0  0  0
    3.0951   46.3802   55.5814 H   0  0  0  0  0  0  0  0  0  0  0  0
    1.0434   45.7893   57.6792 H   0  0  0  0  0  0  0  0  0  0  0  0
   -1.0237   44.4426   58.0954 H   0  0  0  0  0  0  0  0  0  0  0  0
   -1.9442   42.9671   56.3273 H   0  0  0  0  0  0  0  0  0  0  0  0
   -0.8243   42.8069   54.0867 H   0  0  0  0  0  0  0  0  0  0  0  0
    1.4004   43.8343   52.6816 H   0  0  0  0  0  0  0  0  0  0  0  0
  1  2  2  0
  2  3  1  0
  3  4  1  0
  4  5  2  0
  5  6  1  0
  6  7  2  0
  7  8  1  0
  8  9  1  0
  9 10  1  0
 10 11  1  0
 11 12  1  0
 12 13  1  0
 13 14  1  0
 14 15  1  0
  8 16  2  0
  2 17  1  0
 17 18  2  0
 18 19  1  0
 19 20  2  0
 20 21  1  0
 21 22  2  0
 22 23  1  0
 23 24  2  0
 24 25  1  0
 16  4  1  0
 25 17  1  0
 15 11  1  0
 24 19  1  0
  3 26  1  0
  5 27  1  0
  6 28  1  0
  7 29  1  0
 10 30  1  0
 10 31  1  0
 11 32  1  0
 12 33  1  0
 12 34  1  0
 13 35  1  0
 13 36  1  0
 14 37  1  0
 14 38  1  0
 16 39  1  0
 18 40  1  0
 20 41  1  0
 21 42  1  0
 22 43  1  0
 23 44  1  0
 25 45  1  0
M  END
>  <meeko>  (363) 
{"is_sidechain": false}

>  <CID>  (363) 
Z321303522

>  <pose_index>  (363) 
4

>  <docking_score>  (363) 
-8.359

>  <rmsd_to_best_selected>  (363) 
1.1817574868786143

>  <MWT>  (363) 
336.3909999999996

>  <TPSA>  (363) 
63.35

>  <logP>  (363) 
3.9780000000000024

>  <HBD>  (363) 
2

>  <HBA>  (363) 
3

>  <SMILES>  (363) 
[H]c1c([H])c(OC([H])([H])C2([H])OC([H])([H])C([H])([H])C2([H])[H])c([H])c(N([H])C(=O)c2c([H])c3c([H])c([H])c([H])c([H])c3n2[H])c1[H]

$$$$
Z321303522_pose7
     RDKit          3D

 45 48  0  0  0  0  0  0  0  0999 V2000
    3.4539   44.5704   51.5922 O   0  0  0  0  0  0  0  0  0  0  0  0
    3.3824   44.3262   52.7913 C   0  0  0  0  0  0  0  0  0  0  0  0
    4.4439   43.9838   53.6062 N   0  0  0  0  0  0  0  0  0  0  0  0
    5.8034   43.8440   53.2501 C   0  0  0  0  0  0  0  0  0  0  0  0
    6.3274   42.7279   52.5969 C   0  0  0  0  0  0  0  0  0  0  0  0
    7.6875   42.6695   52.2840 C   0  0  0  0  0  0  0  0  0  0  0  0
    8.5285   43.7264   52.6241 C   0  0  0  0  0  0  0  0  0  0  0  0
    8.0241   44.8523   53.2766 C   0  0  0  0  0  0  0  0  0  0  0  0
    8.9593   45.8079   53.5537 O   0  0  0  0  0  0  0  0  0  0  0  0
    8.5580   47.1779   53.5776 C   0  0  0  0  0  0  0  0  0  0  0  0
    9.3700   48.0312   52.5936 C   0  0  0  0  0  0  0  0  0  0  0  0
   10.0703   47.2103   51.5165 C   0  0  0  0  0  0  0  0  0  0  0  0
    9.0811   47.2452   50.3777 C   0  0  0  0  0  0  0  0  0  0  0  0
    8.5020   48.6344   50.5103 C   0  0  0  0  0  0  0  0  0  0  0  0
    8.4757   48.9334   51.9123 O   0  0  0  0  0  0  0  0  0  0  0  0
    6.6621   44.9044   53.5867 C   0  0  0  0  0  0  0  0  0  0  0  0
    2.0972   44.3858   53.4714 C   0  0  0  0  0  0  0  0  0  0  0  0
    1.2847   45.4325   53.8741 C   0  0  0  0  0  0  0  0  0  0  0  0
    0.1276   44.8906   54.5034 C   0  0  0  0  0  0  0  0  0  0  0  0
   -1.0186   45.4524   55.0961 C   0  0  0  0  0  0  0  0  0  0  0  0
   -1.9935   44.6046   55.6368 C   0  0  0  0  0  0  0  0  0  0  0  0
   -1.8361   43.2208   55.5928 C   0  0  0  0  0  0  0  0  0  0  0  0
   -0.7054   42.6432   55.0089 C   0  0  0  0  0  0  0  0  0  0  0  0
    0.2572   43.5041   54.4734 C   0  0  0  0  0  0  0  0  0  0  0  0
    1.4483   43.2277   53.8484 N   0  0  0  0  0  0  0  0  0  0  0  0
    4.2254   43.8126   54.5761 H   0  0  0  0  0  0  0  0  0  0  0  0
    5.6669   41.8907   52.3273 H   0  0  0  0  0  0  0  0  0  0  0  0
    8.0951   41.7875   51.7683 H   0  0  0  0  0  0  0  0  0  0  0  0
    9.5989   43.6733   52.3763 H   0  0  0  0  0  0  0  0  0  0  0  0
    7.4934   47.2410   53.3079 H   0  0  0  0  0  0  0  0  0  0  0  0
    8.7349   47.5667   54.5912 H   0  0  0  0  0  0  0  0  0  0  0  0
   10.1348   48.5503   53.1898 H   0  0  0  0  0  0  0  0  0  0  0  0
   11.0262   47.6705   51.2258 H   0  0  0  0  0  0  0  0  0  0  0  0
   10.3261   46.1911   51.8416 H   0  0  0  0  0  0  0  0  0  0  0  0
    9.5826   47.1117   49.4079 H   0  0  0  0  0  0  0  0  0  0  0  0
    8.3283   46.4442   50.4183 H   0  0  0  0  0  0  0  0  0  0  0  0
    9.1335   49.3614   49.9786 H   0  0  0  0  0  0  0  0  0  0  0  0
    7.4939   48.6880   50.0735 H   0  0  0  0  0  0  0  0  0  0  0  0
    6.2566   45.7879   54.1016 H   0  0  0  0  0  0  0  0  0  0  0  0
    1.4972   46.5024   53.7319 H   0  0  0  0  0  0  0  0  0  0  0  0
   -1.1473   46.5442   55.1341 H   0  0  0  0  0  0  0  0  0  0  0  0
   -2.8928   45.0356   56.1011 H   0  0  0  0  0  0  0  0  0  0  0  0
   -2.6136   42.5732   56.0243 H   0  0  0  0  0  0  0  0  0  0  0  0
   -0.5776   41.5513   54.9719 H   0  0  0  0  0  0  0  0  0  0  0  0
    1.8197   42.3014   53.6789 H   0  0  0  0  0  0  0  0  0  0  0  0
  1  2  2  0
  2  3  1  0
  3  4  1  0
  4  5  2  0
  5  6  1  0
  6  7  2  0
  7  8  1  0
  8  9  1  0
  9 10  1  0
 10 11  1  0
 11 12  1  0
 12 13  1  0
 13 14  1  0
 14 15  1  0
  8 16  2  0
  2 17  1  0
 17 18  2  0
 18 19  1  0
 19 20  2  0
 20 21  1  0
 21 22  2  0
 22 23  1  0
 23 24  2  0
 24 25  1  0
 16  4  1  0
 25 17  1  0
 15 11  1  0
 24 19  1  0
  3 26  1  0
  5 27  1  0
  6 28  1  0
  7 29  1  0
 10 30  1  0
 10 31  1  0
 11 32  1  0
 12 33  1  0
 12 34  1  0
 13 35  1  0
 13 36  1  0
 14 37  1  0
 14 38  1  0
 16 39  1  0
 18 40  1  0
 20 41  1  0
 21 42  1  0
 22 43  1  0
 23 44  1  0
 25 45  1  0
M  END
>  <meeko>  (364) 
{"is_sidechain": false}

>  <CID>  (364) 
Z321303522

>  <pose_index>  (364) 
7

>  <docking_score>  (364) 
-8.253

>  <rmsd_to_best_selected>  (364) 
1.9451110983352269

>  <MWT>  (364) 
336.3909999999996

>  <TPSA>  (364) 
63.35

>  <logP>  (364) 
3.9780000000000024

>  <HBD>  (364) 
2

>  <HBA>  (364) 
3

>  <SMILES>  (364) 
[H]c1c([H])c(OC([H])([H])C2([H])OC([H])([H])C([H])([H])C2([H])[H])c([H])c(N([H])C(=O)c2c([H])c3c([H])c([H])c([H])c([H])c3n2[H])c1[H]

$$$$
Z321303522_pose8
     RDKit          3D

 45 48  0  0  0  0  0  0  0  0999 V2000
    4.6490   45.2298   55.2116 O   0  0  0  0  0  0  0  0  0  0  0  0
    4.0491   44.5447   54.3912 C   0  0  0  0  0  0  0  0  0  0  0  0
    4.6335   43.7032   53.4666 N   0  0  0  0  0  0  0  0  0  0  0  0
    6.0097   43.4513   53.2670 C   0  0  0  0  0  0  0  0  0  0  0  0
    6.6826   42.3413   53.7797 C   0  0  0  0  0  0  0  0  0  0  0  0
    8.0464   42.1714   53.5359 C   0  0  0  0  0  0  0  0  0  0  0  0
    8.7439   43.1093   52.7787 C   0  0  0  0  0  0  0  0  0  0  0  0
    8.0896   44.2256   52.2558 C   0  0  0  0  0  0  0  0  0  0  0  0
    8.8949   45.0651   51.5394 O   0  0  0  0  0  0  0  0  0  0  0  0
    9.5601   46.1285   52.2207 C   0  0  0  0  0  0  0  0  0  0  0  0
    9.5284   47.4356   51.4166 C   0  0  0  0  0  0  0  0  0  0  0  0
    8.2131   47.6592   50.6782 C   0  0  0  0  0  0  0  0  0  0  0  0
    7.4259   48.5033   51.6513 C   0  0  0  0  0  0  0  0  0  0  0  0
    8.5094   49.3583   52.2674 C   0  0  0  0  0  0  0  0  0  0  0  0
    9.6886   48.5439   52.3234 O   0  0  0  0  0  0  0  0  0  0  0  0
    6.7236   44.3903   52.5033 C   0  0  0  0  0  0  0  0  0  0  0  0
    2.5960   44.5797   54.3374 C   0  0  0  0  0  0  0  0  0  0  0  0
    1.6862   45.5055   53.8519 C   0  0  0  0  0  0  0  0  0  0  0  0
    0.3712   45.0036   54.0697 C   0  0  0  0  0  0  0  0  0  0  0  0
   -0.9205   45.4907   53.7941 C   0  0  0  0  0  0  0  0  0  0  0  0
   -2.0324   44.7181   54.1518 C   0  0  0  0  0  0  0  0  0  0  0  0
   -1.8700   43.4820   54.7743 C   0  0  0  0  0  0  0  0  0  0  0  0
   -0.5961   42.9806   55.0566 C   0  0  0  0  0  0  0  0  0  0  0  0
    0.5035   43.7651   54.6919 C   0  0  0  0  0  0  0  0  0  0  0  0
    1.8485   43.5347   54.8412 N   0  0  0  0  0  0  0  0  0  0  0  0
    4.0045   43.2029   52.8568 H   0  0  0  0  0  0  0  0  0  0  0  0
    6.1361   41.5975   54.3781 H   0  0  0  0  0  0  0  0  0  0  0  0
    8.5714   41.2946   53.9428 H   0  0  0  0  0  0  0  0  0  0  0  0
    9.8187   42.9692   52.5915 H   0  0  0  0  0  0  0  0  0  0  0  0
    9.0646   46.2950   53.1886 H   0  0  0  0  0  0  0  0  0  0  0  0
   10.6125   45.8389   52.3570 H   0  0  0  0  0  0  0  0  0  0  0  0
   10.3380   47.3645   50.6754 H   0  0  0  0  0  0  0  0  0  0  0  0
    8.3760   48.1938   49.7308 H   0  0  0  0  0  0  0  0  0  0  0  0
    7.7042   46.7245   50.4001 H   0  0  0  0  0  0  0  0  0  0  0  0
    6.6768   49.1191   51.1321 H   0  0  0  0  0  0  0  0  0  0  0  0
    6.8502   47.9183   52.3836 H   0  0  0  0  0  0  0  0  0  0  0  0
    8.6910   50.2476   51.6460 H   0  0  0  0  0  0  0  0  0  0  0  0
    8.2190   49.7071   53.2694 H   0  0  0  0  0  0  0  0  0  0  0  0
    6.2003   45.2672   52.0944 H   0  0  0  0  0  0  0  0  0  0  0  0
    1.9373   46.4660   53.3783 H   0  0  0  0  0  0  0  0  0  0  0  0
   -1.0548   46.4661   53.3037 H   0  0  0  0  0  0  0  0  0  0  0  0
   -3.0451   45.0911   53.9391 H   0  0  0  0  0  0  0  0  0  0  0  0
   -2.7574   42.8922   55.0476 H   0  0  0  0  0  0  0  0  0  0  0  0
   -0.4631   42.0052   55.5475 H   0  0  0  0  0  0  0  0  0  0  0  0
    2.2589   42.7106   55.2635 H   0  0  0  0  0  0  0  0  0  0  0  0
  1  2  2  0
  2  3  1  0
  3  4  1  0
  4  5  2  0
  5  6  1  0
  6  7  2  0
  7  8  1  0
  8  9  1  0
  9 10  1  0
 10 11  1  0
 11 12  1  0
 12 13  1  0
 13 14  1  0
 14 15  1  0
  8 16  2  0
  2 17  1  0
 17 18  2  0
 18 19  1  0
 19 20  2  0
 20 21  1  0
 21 22  2  0
 22 23  1  0
 23 24  2  0
 24 25  1  0
 16  4  1  0
 25 17  1  0
 15 11  1  0
 24 19  1  0
  3 26  1  0
  5 27  1  0
  6 28  1  0
  7 29  1  0
 10 30  1  0
 10 31  1  0
 11 32  1  0
 12 33  1  0
 12 34  1  0
 13 35  1  0
 13 36  1  0
 14 37  1  0
 14 38  1  0
 16 39  1  0
 18 40  1  0
 20 41  1  0
 21 42  1  0
 22 43  1  0
 23 44  1  0
 25 45  1  0
M  END
>  <meeko>  (365) 
{"is_sidechain": false}

>  <CID>  (365) 
Z321303522

>  <pose_index>  (365) 
8

>  <docking_score>  (365) 
-8.104

>  <rmsd_to_best_selected>  (365) 
0.48839462817996787

>  <MWT>  (365) 
336.3909999999996

>  <TPSA>  (365) 
63.35

>  <logP>  (365) 
3.9780000000000024

>  <HBD>  (365) 
2

>  <HBA>  (365) 
3

>  <SMILES>  (365) 
[H]c1c([H])c(OC([H])([H])C2([H])OC([H])([H])C([H])([H])C2([H])[H])c([H])c(N([H])C(=O)c2c([H])c3c([H])c([H])c([H])c([H])c3n2[H])c1[H]

$$$$
Z352550402_pose1
     RDKit          3D

 38 40  0  0  0  0  0  0  0  0999 V2000
    2.0230   42.3080   50.4400 O   0  0  0  0  0  0  0  0  0  0  0  0
    2.9340   42.0520   51.2270 C   0  0  0  0  0  0  0  0  0  0  0  0
    4.2770   41.4460   50.8020 C   0  0  0  0  0  0  0  0  0  0  0  0
    4.8900   42.0470   49.6740 O   0  0  0  0  0  0  0  0  0  0  0  0
    5.8270   43.0180   49.8900 C   0  0  0  0  0  0  0  0  0  0  0  0
    5.4340   44.0100   50.7900 C   0  0  0  0  0  0  0  0  0  0  0  0
    6.2930   45.0670   51.1090 C   0  0  0  0  0  0  0  0  0  0  0  0
    7.5690   45.1550   50.5380 C   0  0  0  0  0  0  0  0  0  0  0  0
    8.3860   46.2510   50.8570 N   0  0  0  0  0  0  0  0  0  0  0  0
    8.8330   46.7670   52.0850 C   0  0  0  0  0  0  0  0  0  0  0  0
    9.9420   46.2560   52.7700 C   0  0  0  0  0  0  0  0  0  0  0  0
   10.3260   46.7750   54.0100 C   0  0  0  0  0  0  0  0  0  0  0  0
    9.5970   47.8100   54.5900 C   0  0  0  0  0  0  0  0  0  0  0  0
    8.4870   48.3260   53.9290 C   0  0  0  0  0  0  0  0  0  0  0  0
    8.1080   47.8050   52.6880 C   0  0  0  0  0  0  0  0  0  0  0  0
    7.9470   44.1610   49.6300 C   0  0  0  0  0  0  0  0  0  0  0  0
    7.0890   43.0990   49.3090 C   0  0  0  0  0  0  0  0  0  0  0  0
    2.8600   42.2850   52.5870 N   0  0  0  0  0  0  0  0  0  0  0  0
    1.7400   42.8120   53.1740 C   0  0  0  0  0  0  0  0  0  0  0  0
    1.6690   43.9610   53.8050 N   0  0  0  0  0  0  0  0  0  0  0  0
    0.3710   44.1180   54.2470 N   0  0  0  0  0  0  0  0  0  0  0  0
   -0.3090   43.0590   53.8700 C   0  0  0  0  0  0  0  0  0  0  0  0
    0.5090   42.2130   53.1950 N   0  0  0  0  0  0  0  0  0  0  0  0
    4.9712   41.5326   51.6508 H   0  0  0  0  0  0  0  0  0  0  0  0
    4.0599   40.4081   50.5095 H   0  0  0  0  0  0  0  0  0  0  0  0
    4.4377   43.9600   51.2536 H   0  0  0  0  0  0  0  0  0  0  0  0
    5.9618   45.8399   51.8182 H   0  0  0  0  0  0  0  0  0  0  0  0
    8.7460   46.7490   50.0500 H   0  0  0  0  0  0  0  0  0  0  0  0
   10.5205   45.4328   52.3253 H   0  0  0  0  0  0  0  0  0  0  0  0
   11.2054   46.3651   54.5283 H   0  0  0  0  0  0  0  0  0  0  0  0
    9.8975   48.2178   55.5664 H   0  0  0  0  0  0  0  0  0  0  0  0
    7.9076   49.1437   54.3825 H   0  0  0  0  0  0  0  0  0  0  0  0
    7.2258   48.2165   52.1758 H   0  0  0  0  0  0  0  0  0  0  0  0
    8.9388   44.2131   49.1572 H   0  0  0  0  0  0  0  0  0  0  0  0
    7.4146   42.3276   48.5957 H   0  0  0  0  0  0  0  0  0  0  0  0
    3.6270   42.0810   53.2140 H   0  0  0  0  0  0  0  0  0  0  0  0
   -1.3765   42.8852   54.0706 H   0  0  0  0  0  0  0  0  0  0  0  0
    0.2930   41.3160   52.7770 H   0  0  0  0  0  0  0  0  0  0  0  0
  1  2  2  0
  2  3  1  0
  3  4  1  0
  4  5  1  0
  5  6  2  0
  6  7  1  0
  7  8  2  0
  8  9  1  0
  9 10  1  0
 10 11  2  0
 11 12  1  0
 12 13  2  0
 13 14  1  0
 14 15  2  0
  8 16  1  0
 16 17  2  0
  2 18  1  0
 18 19  1  0
 19 20  2  0
 20 21  1  0
 21 22  2  0
 22 23  1  0
 17  5  1  0
 23 19  1  0
 15 10  1  0
  3 24  1  0
  3 25  1  0
  6 26  1  0
  7 27  1  0
  9 28  1  0
 11 29  1  0
 12 30  1  0
 13 31  1  0
 14 32  1  0
 15 33  1  0
 16 34  1  0
 17 35  1  0
 18 36  1  0
 22 37  1  0
 23 38  1  0
M  END
>  <meeko>  (366) 
{"is_sidechain": false}

>  <CID>  (366) 
Z352550402

>  <pose_index>  (366) 
1

>  <docking_score>  (366) 
-8.728

>  <rmsd_to_best_selected>  (366) 
0.0

>  <MWT>  (366) 
309.3289999999997

>  <TPSA>  (366) 
91.93

>  <logP>  (366) 
2.5657999999999994

>  <HBD>  (366) 
3

>  <HBA>  (366) 
5

>  <SMILES>  (366) 
[H]c1c([H])c([H])c(N([H])c2c([H])c([H])c(OC([H])([H])C(=O)N([H])c3nnc([H])n3[H])c([H])c2[H])c([H])c1[H]

$$$$
Z352550402_pose3
     RDKit          3D

 38 40  0  0  0  0  0  0  0  0999 V2000
    2.3667   40.3481   51.0915 O   0  0  0  0  0  0  0  0  0  0  0  0
    3.2080   41.2118   51.3380 C   0  0  0  0  0  0  0  0  0  0  0  0
    4.3999   41.5224   50.4238 C   0  0  0  0  0  0  0  0  0  0  0  0
    4.2874   42.7087   49.6556 O   0  0  0  0  0  0  0  0  0  0  0  0
    5.1377   43.7411   49.9343 C   0  0  0  0  0  0  0  0  0  0  0  0
    6.4751   43.3667   50.0736 C   0  0  0  0  0  0  0  0  0  0  0  0
    7.4593   44.3200   50.3569 C   0  0  0  0  0  0  0  0  0  0  0  0
    7.1284   45.6727   50.5047 C   0  0  0  0  0  0  0  0  0  0  0  0
    8.1400   46.5915   50.8246 N   0  0  0  0  0  0  0  0  0  0  0  0
    8.6909   46.9959   52.0527 C   0  0  0  0  0  0  0  0  0  0  0  0
    7.9705   46.9883   53.2529 C   0  0  0  0  0  0  0  0  0  0  0  0
    8.5484   47.4377   54.4446 C   0  0  0  0  0  0  0  0  0  0  0  0
    9.8566   47.9134   54.4500 C   0  0  0  0  0  0  0  0  0  0  0  0
   10.5873   47.9365   53.2669 C   0  0  0  0  0  0  0  0  0  0  0  0
   10.0067   47.4837   52.0779 C   0  0  0  0  0  0  0  0  0  0  0  0
    5.7841   46.0339   50.3734 C   0  0  0  0  0  0  0  0  0  0  0  0
    4.7962   45.0811   50.0867 C   0  0  0  0  0  0  0  0  0  0  0  0
    3.1781   42.0108   52.4653 N   0  0  0  0  0  0  0  0  0  0  0  0
    2.2016   41.8874   53.4178 C   0  0  0  0  0  0  0  0  0  0  0  0
    2.3926   41.5871   54.6825 N   0  0  0  0  0  0  0  0  0  0  0  0
    1.1590   41.5598   55.2995 N   0  0  0  0  0  0  0  0  0  0  0  0
    0.2535   41.8465   54.3912 C   0  0  0  0  0  0  0  0  0  0  0  0
    0.8626   42.0583   53.1960 N   0  0  0  0  0  0  0  0  0  0  0  0
    5.2967   41.6109   51.0546 H   0  0  0  0  0  0  0  0  0  0  0  0
    4.4473   40.6966   49.6987 H   0  0  0  0  0  0  0  0  0  0  0  0
    6.7586   42.3100   49.9594 H   0  0  0  0  0  0  0  0  0  0  0  0
    8.5070   44.0027   50.4651 H   0  0  0  0  0  0  0  0  0  0  0  0
    8.5767   47.0261   50.0192 H   0  0  0  0  0  0  0  0  0  0  0  0
    6.9330   46.6229   53.2589 H   0  0  0  0  0  0  0  0  0  0  0  0
    7.9684   47.4152   55.3789 H   0  0  0  0  0  0  0  0  0  0  0  0
   10.3107   48.2697   55.3865 H   0  0  0  0  0  0  0  0  0  0  0  0
   11.6217   48.3109   53.2664 H   0  0  0  0  0  0  0  0  0  0  0  0
   10.5913   47.5102   51.1465 H   0  0  0  0  0  0  0  0  0  0  0  0
    5.4954   47.0880   50.4978 H   0  0  0  0  0  0  0  0  0  0  0  0
    3.7470   45.3944   49.9818 H   0  0  0  0  0  0  0  0  0  0  0  0
    3.8714   42.7265   52.6410 H   0  0  0  0  0  0  0  0  0  0  0  0
   -0.8300   41.9059   54.5712 H   0  0  0  0  0  0  0  0  0  0  0  0
    0.4465   42.2964   52.3045 H   0  0  0  0  0  0  0  0  0  0  0  0
  1  2  2  0
  2  3  1  0
  3  4  1  0
  4  5  1  0
  5  6  2  0
  6  7  1  0
  7  8  2  0
  8  9  1  0
  9 10  1  0
 10 11  2  0
 11 12  1  0
 12 13  2  0
 13 14  1  0
 14 15  2  0
  8 16  1  0
 16 17  2  0
  2 18  1  0
 18 19  1  0
 19 20  2  0
 20 21  1  0
 21 22  2  0
 22 23  1  0
 17  5  1  0
 23 19  1  0
 15 10  1  0
  3 24  1  0
  3 25  1  0
  6 26  1  0
  7 27  1  0
  9 28  1  0
 11 29  1  0
 12 30  1  0
 13 31  1  0
 14 32  1  0
 15 33  1  0
 16 34  1  0
 17 35  1  0
 18 36  1  0
 22 37  1  0
 23 38  1  0
M  END
>  <meeko>  (367) 
{"is_sidechain": false}

>  <CID>  (367) 
Z352550402

>  <pose_index>  (367) 
3

>  <docking_score>  (367) 
-8.69

>  <rmsd_to_best_selected>  (367) 
1.2081103131139979

>  <MWT>  (367) 
309.3289999999997

>  <TPSA>  (367) 
91.93

>  <logP>  (367) 
2.5657999999999994

>  <HBD>  (367) 
3

>  <HBA>  (367) 
5

>  <SMILES>  (367) 
[H]c1c([H])c([H])c(N([H])c2c([H])c([H])c(OC([H])([H])C(=O)N([H])c3nnc([H])n3[H])c([H])c2[H])c([H])c1[H]

$$$$
Z352550402_pose4
     RDKit          3D

 38 40  0  0  0  0  0  0  0  0999 V2000
    2.0431   40.7395   50.9129 O   0  0  0  0  0  0  0  0  0  0  0  0
    3.0658   41.3235   51.2682 C   0  0  0  0  0  0  0  0  0  0  0  0
    4.3060   41.4805   50.3791 C   0  0  0  0  0  0  0  0  0  0  0  0
    4.3631   42.6734   49.6149 O   0  0  0  0  0  0  0  0  0  0  0  0
    5.3410   43.5809   49.9074 C   0  0  0  0  0  0  0  0  0  0  0  0
    4.8740   44.8691   50.1728 C   0  0  0  0  0  0  0  0  0  0  0  0
    5.7631   45.9017   50.4899 C   0  0  0  0  0  0  0  0  0  0  0  0
    7.1426   45.6685   50.5538 C   0  0  0  0  0  0  0  0  0  0  0  0
    8.0031   46.7401   50.8399 N   0  0  0  0  0  0  0  0  0  0  0  0
    8.6426   47.1446   52.0244 C   0  0  0  0  0  0  0  0  0  0  0  0
   10.0124   47.4201   52.0973 C   0  0  0  0  0  0  0  0  0  0  0  0
   10.6127   47.7807   53.3077 C   0  0  0  0  0  0  0  0  0  0  0  0
    9.8495   47.8605   54.4687 C   0  0  0  0  0  0  0  0  0  0  0  0
    8.4870   47.5826   54.4197 C   0  0  0  0  0  0  0  0  0  0  0  0
    7.8908   47.2249   53.2067 C   0  0  0  0  0  0  0  0  0  0  0  0
    7.5997   44.3770   50.2771 C   0  0  0  0  0  0  0  0  0  0  0  0
    6.7106   43.3387   49.9598 C   0  0  0  0  0  0  0  0  0  0  0  0
    3.2207   41.9137   52.5085 N   0  0  0  0  0  0  0  0  0  0  0  0
    2.2350   41.8767   53.4588 C   0  0  0  0  0  0  0  0  0  0  0  0
    2.4126   41.6941   54.7464 N   0  0  0  0  0  0  0  0  0  0  0  0
    1.1730   41.7226   55.3508 N   0  0  0  0  0  0  0  0  0  0  0  0
    0.2765   41.9226   54.4110 C   0  0  0  0  0  0  0  0  0  0  0  0
    0.8976   42.0246   53.2086 N   0  0  0  0  0  0  0  0  0  0  0  0
    5.1938   41.4510   51.0278 H   0  0  0  0  0  0  0  0  0  0  0  0
    4.2609   40.6575   49.6506 H   0  0  0  0  0  0  0  0  0  0  0  0
    3.7942   45.0749   50.1321 H   0  0  0  0  0  0  0  0  0  0  0  0
    5.3735   46.9104   50.6916 H   0  0  0  0  0  0  0  0  0  0  0  0
    8.2303   47.3154   50.0372 H   0  0  0  0  0  0  0  0  0  0  0  0
   10.6272   47.3519   51.1877 H   0  0  0  0  0  0  0  0  0  0  0  0
   11.6898   48.0016   53.3422 H   0  0  0  0  0  0  0  0  0  0  0  0
   10.3216   48.1423   55.4215 H   0  0  0  0  0  0  0  0  0  0  0  0
    7.8795   47.6442   55.3346 H   0  0  0  0  0  0  0  0  0  0  0  0
    6.8138   47.0026   53.1786 H   0  0  0  0  0  0  0  0  0  0  0  0
    8.6796   44.1701   50.3088 H   0  0  0  0  0  0  0  0  0  0  0  0
    7.0974   42.3301   49.7519 H   0  0  0  0  0  0  0  0  0  0  0  0
    4.0654   42.4023   52.7744 H   0  0  0  0  0  0  0  0  0  0  0  0
   -0.8089   41.9960   54.5737 H   0  0  0  0  0  0  0  0  0  0  0  0
    0.4919   42.1785   52.2938 H   0  0  0  0  0  0  0  0  0  0  0  0
  1  2  2  0
  2  3  1  0
  3  4  1  0
  4  5  1  0
  5  6  2  0
  6  7  1  0
  7  8  2  0
  8  9  1  0
  9 10  1  0
 10 11  2  0
 11 12  1  0
 12 13  2  0
 13 14  1  0
 14 15  2  0
  8 16  1  0
 16 17  2  0
  2 18  1  0
 18 19  1  0
 19 20  2  0
 20 21  1  0
 21 22  2  0
 22 23  1  0
 17  5  1  0
 23 19  1  0
 15 10  1  0
  3 24  1  0
  3 25  1  0
  6 26  1  0
  7 27  1  0
  9 28  1  0
 11 29  1  0
 12 30  1  0
 13 31  1  0
 14 32  1  0
 15 33  1  0
 16 34  1  0
 17 35  1  0
 18 36  1  0
 22 37  1  0
 23 38  1  0
M  END
>  <meeko>  (368) 
{"is_sidechain": false}

>  <CID>  (368) 
Z352550402

>  <pose_index>  (368) 
4

>  <docking_score>  (368) 
-8.61

>  <rmsd_to_best_selected>  (368) 
1.0443933771241674

>  <MWT>  (368) 
309.3289999999997

>  <TPSA>  (368) 
91.93

>  <logP>  (368) 
2.5657999999999994

>  <HBD>  (368) 
3

>  <HBA>  (368) 
5

>  <SMILES>  (368) 
[H]c1c([H])c([H])c(N([H])c2c([H])c([H])c(OC([H])([H])C(=O)N([H])c3nnc([H])n3[H])c([H])c2[H])c([H])c1[H]

$$$$
Z352550402_pose7
     RDKit          3D

 38 40  0  0  0  0  0  0  0  0999 V2000
    3.3386   43.3750   51.6479 O   0  0  0  0  0  0  0  0  0  0  0  0
    2.8067   42.7247   52.5478 C   0  0  0  0  0  0  0  0  0  0  0  0
    2.7159   43.2049   54.0021 C   0  0  0  0  0  0  0  0  0  0  0  0
    3.9430   43.2404   54.7115 O   0  0  0  0  0  0  0  0  0  0  0  0
    4.8803   44.1597   54.3330 C   0  0  0  0  0  0  0  0  0  0  0  0
    6.1504   43.6293   54.1066 C   0  0  0  0  0  0  0  0  0  0  0  0
    7.2102   44.4530   53.7111 C   0  0  0  0  0  0  0  0  0  0  0  0
    7.0221   45.8281   53.5286 C   0  0  0  0  0  0  0  0  0  0  0  0
    8.1191   46.6257   53.1659 N   0  0  0  0  0  0  0  0  0  0  0  0
    8.7167   46.8975   51.9229 C   0  0  0  0  0  0  0  0  0  0  0  0
    8.3059   46.2923   50.7290 C   0  0  0  0  0  0  0  0  0  0  0  0
    8.9570   46.5627   49.5219 C   0  0  0  0  0  0  0  0  0  0  0  0
   10.0383   47.4387   49.4927 C   0  0  0  0  0  0  0  0  0  0  0  0
   10.4662   48.0455   50.6693 C   0  0  0  0  0  0  0  0  0  0  0  0
    9.8114   47.7736   51.8742 C   0  0  0  0  0  0  0  0  0  0  0  0
    5.7471   46.3504   53.7670 C   0  0  0  0  0  0  0  0  0  0  0  0
    4.6826   45.5264   54.1628 C   0  0  0  0  0  0  0  0  0  0  0  0
    2.2212   41.4885   52.3573 N   0  0  0  0  0  0  0  0  0  0  0  0
    2.2042   40.8729   51.1334 C   0  0  0  0  0  0  0  0  0  0  0  0
    1.7136   39.6819   50.8757 N   0  0  0  0  0  0  0  0  0  0  0  0
    1.8938   39.4355   49.5302 N   0  0  0  0  0  0  0  0  0  0  0  0
    2.4870   40.4851   49.0089 C   0  0  0  0  0  0  0  0  0  0  0  0
    2.7019   41.4115   49.9774 N   0  0  0  0  0  0  0  0  0  0  0  0
    2.2977   44.2223   53.9974 H   0  0  0  0  0  0  0  0  0  0  0  0
    2.0869   42.4688   54.5241 H   0  0  0  0  0  0  0  0  0  0  0  0
    6.3209   42.5509   54.2405 H   0  0  0  0  0  0  0  0  0  0  0  0
    8.2044   44.0141   53.5414 H   0  0  0  0  0  0  0  0  0  0  0  0
    8.5454   47.1220   53.9398 H   0  0  0  0  0  0  0  0  0  0  0  0
    7.4571   45.5928   50.7411 H   0  0  0  0  0  0  0  0  0  0  0  0
    8.6143   46.0823   48.5936 H   0  0  0  0  0  0  0  0  0  0  0  0
   10.5522   47.6504   48.5435 H   0  0  0  0  0  0  0  0  0  0  0  0
   11.3197   48.7391   50.6515 H   0  0  0  0  0  0  0  0  0  0  0  0
   10.1604   48.2548   52.7998 H   0  0  0  0  0  0  0  0  0  0  0  0
    5.5750   47.4296   53.6416 H   0  0  0  0  0  0  0  0  0  0  0  0
    3.6883   45.9625   54.3393 H   0  0  0  0  0  0  0  0  0  0  0  0
    1.7750   40.9772   53.1082 H   0  0  0  0  0  0  0  0  0  0  0  0
    2.7664   40.5961   47.9508 H   0  0  0  0  0  0  0  0  0  0  0  0
    3.1353   42.3231   49.9010 H   0  0  0  0  0  0  0  0  0  0  0  0
  1  2  2  0
  2  3  1  0
  3  4  1  0
  4  5  1  0
  5  6  2  0
  6  7  1  0
  7  8  2  0
  8  9  1  0
  9 10  1  0
 10 11  2  0
 11 12  1  0
 12 13  2  0
 13 14  1  0
 14 15  2  0
  8 16  1  0
 16 17  2  0
  2 18  1  0
 18 19  1  0
 19 20  2  0
 20 21  1  0
 21 22  2  0
 22 23  1  0
 17  5  1  0
 23 19  1  0
 15 10  1  0
  3 24  1  0
  3 25  1  0
  6 26  1  0
  7 27  1  0
  9 28  1  0
 11 29  1  0
 12 30  1  0
 13 31  1  0
 14 32  1  0
 15 33  1  0
 16 34  1  0
 17 35  1  0
 18 36  1  0
 22 37  1  0
 23 38  1  0
M  END
>  <meeko>  (369) 
{"is_sidechain": false}

>  <CID>  (369) 
Z352550402

>  <pose_index>  (369) 
7

>  <docking_score>  (369) 
-8.427

>  <rmsd_to_best_selected>  (369) 
1.6972255584306641

>  <MWT>  (369) 
309.3289999999997

>  <TPSA>  (369) 
91.93

>  <logP>  (369) 
2.5657999999999994

>  <HBD>  (369) 
3

>  <HBA>  (369) 
5

>  <SMILES>  (369) 
[H]c1c([H])c([H])c(N([H])c2c([H])c([H])c(OC([H])([H])C(=O)N([H])c3nnc([H])n3[H])c([H])c2[H])c([H])c1[H]

$$$$
Z352550402_pose8
     RDKit          3D

 38 40  0  0  0  0  0  0  0  0999 V2000
    3.2579   43.2645   51.3924 O   0  0  0  0  0  0  0  0  0  0  0  0
    2.6500   42.8363   52.3725 C   0  0  0  0  0  0  0  0  0  0  0  0
    2.6828   43.5063   53.7521 C   0  0  0  0  0  0  0  0  0  0  0  0
    3.8917   43.3550   54.4762 O   0  0  0  0  0  0  0  0  0  0  0  0
    4.9634   44.1217   54.1104 C   0  0  0  0  0  0  0  0  0  0  0  0
    6.1739   43.4319   54.0528 C   0  0  0  0  0  0  0  0  0  0  0  0
    7.3540   44.0880   53.6883 C   0  0  0  0  0  0  0  0  0  0  0  0
    7.3507   45.4519   53.3711 C   0  0  0  0  0  0  0  0  0  0  0  0
    8.5634   46.0805   53.0472 N   0  0  0  0  0  0  0  0  0  0  0  0
    8.9766   46.8038   51.9146 C   0  0  0  0  0  0  0  0  0  0  0  0
    8.8824   46.3015   50.6115 C   0  0  0  0  0  0  0  0  0  0  0  0
    9.3425   47.0409   49.5178 C   0  0  0  0  0  0  0  0  0  0  0  0
    9.9160   48.2952   49.7148 C   0  0  0  0  0  0  0  0  0  0  0  0
   10.0241   48.8089   51.0025 C   0  0  0  0  0  0  0  0  0  0  0  0
    9.5602   48.0664   52.0935 C   0  0  0  0  0  0  0  0  0  0  0  0
    6.1330   46.1352   53.4421 C   0  0  0  0  0  0  0  0  0  0  0  0
    4.9471   45.4798   53.8050 C   0  0  0  0  0  0  0  0  0  0  0  0
    1.8583   41.7030   52.3499 N   0  0  0  0  0  0  0  0  0  0  0  0
    1.7023   40.9488   51.2174 C   0  0  0  0  0  0  0  0  0  0  0  0
    0.5593   40.5618   50.7004 N   0  0  0  0  0  0  0  0  0  0  0  0
    0.8381   39.8232   49.5683 N   0  0  0  0  0  0  0  0  0  0  0  0
    2.1443   39.7829   49.4297 C   0  0  0  0  0  0  0  0  0  0  0  0
    2.7268   40.4764   50.4419 N   0  0  0  0  0  0  0  0  0  0  0  0
    2.5054   44.5826   53.6103 H   0  0  0  0  0  0  0  0  0  0  0  0
    1.9082   43.0038   54.3500 H   0  0  0  0  0  0  0  0  0  0  0  0
    6.2009   42.3596   54.2967 H   0  0  0  0  0  0  0  0  0  0  0  0
    8.2981   43.5248   53.6504 H   0  0  0  0  0  0  0  0  0  0  0  0
    9.2655   46.0298   53.7760 H   0  0  0  0  0  0  0  0  0  0  0  0
    8.4390   45.3087   50.4452 H   0  0  0  0  0  0  0  0  0  0  0  0
    9.2515   46.6320   48.5007 H   0  0  0  0  0  0  0  0  0  0  0  0
   10.2816   48.8766   48.8556 H   0  0  0  0  0  0  0  0  0  0  0  0
   10.4747   49.7995   51.1633 H   0  0  0  0  0  0  0  0  0  0  0  0
    9.6548   48.4797   53.1085 H   0  0  0  0  0  0  0  0  0  0  0  0
    6.1043   47.2097   53.2084 H   0  0  0  0  0  0  0  0  0  0  0  0
    4.0017   46.0405   53.8484 H   0  0  0  0  0  0  0  0  0  0  0  0
    1.3546   41.3772   53.1639 H   0  0  0  0  0  0  0  0  0  0  0  0
    2.6821   39.2677   48.6202 H   0  0  0  0  0  0  0  0  0  0  0  0
    3.7114   40.6334   50.6210 H   0  0  0  0  0  0  0  0  0  0  0  0
  1  2  2  0
  2  3  1  0
  3  4  1  0
  4  5  1  0
  5  6  2  0
  6  7  1  0
  7  8  2  0
  8  9  1  0
  9 10  1  0
 10 11  2  0
 11 12  1  0
 12 13  2  0
 13 14  1  0
 14 15  2  0
  8 16  1  0
 16 17  2  0
  2 18  1  0
 18 19  1  0
 19 20  2  0
 20 21  1  0
 21 22  2  0
 22 23  1  0
 17  5  1  0
 23 19  1  0
 15 10  1  0
  3 24  1  0
  3 25  1  0
  6 26  1  0
  7 27  1  0
  9 28  1  0
 11 29  1  0
 12 30  1  0
 13 31  1  0
 14 32  1  0
 15 33  1  0
 16 34  1  0
 17 35  1  0
 18 36  1  0
 22 37  1  0
 23 38  1  0
M  END
>  <meeko>  (370) 
{"is_sidechain": false}

>  <CID>  (370) 
Z352550402

>  <pose_index>  (370) 
8

>  <docking_score>  (370) 
-8.405

>  <rmsd_to_best_selected>  (370) 
1.6005985729141885

>  <MWT>  (370) 
309.3289999999997

>  <TPSA>  (370) 
91.93

>  <logP>  (370) 
2.5657999999999994

>  <HBD>  (370) 
3

>  <HBA>  (370) 
5

>  <SMILES>  (370) 
[H]c1c([H])c([H])c(N([H])c2c([H])c([H])c(OC([H])([H])C(=O)N([H])c3nnc([H])n3[H])c([H])c2[H])c([H])c1[H]

$$$$
Z352550402_pose10
     RDKit          3D

 38 40  0  0  0  0  0  0  0  0999 V2000
    1.8684   41.2741   53.4832 O   0  0  0  0  0  0  0  0  0  0  0  0
    2.4363   42.2711   53.0401 C   0  0  0  0  0  0  0  0  0  0  0  0
    3.0735   43.3492   53.9252 C   0  0  0  0  0  0  0  0  0  0  0  0
    4.2880   42.9811   54.5575 O   0  0  0  0  0  0  0  0  0  0  0  0
    5.4415   43.5821   54.1381 C   0  0  0  0  0  0  0  0  0  0  0  0
    5.3934   44.0811   52.8352 C   0  0  0  0  0  0  0  0  0  0  0  0
    6.5019   44.7242   52.2747 C   0  0  0  0  0  0  0  0  0  0  0  0
    7.6850   44.8864   53.0044 C   0  0  0  0  0  0  0  0  0  0  0  0
    8.7861   45.5057   52.3913 N   0  0  0  0  0  0  0  0  0  0  0  0
    8.9132   46.7099   51.6790 C   0  0  0  0  0  0  0  0  0  0  0  0
    8.4758   46.8664   50.3588 C   0  0  0  0  0  0  0  0  0  0  0  0
    8.6603   48.0718   49.6750 C   0  0  0  0  0  0  0  0  0  0  0  0
    9.2969   49.1400   50.3024 C   0  0  0  0  0  0  0  0  0  0  0  0
    9.7459   49.0021   51.6117 C   0  0  0  0  0  0  0  0  0  0  0  0
    9.5571   47.7952   52.2925 C   0  0  0  0  0  0  0  0  0  0  0  0
    7.7254   44.3740   54.3047 C   0  0  0  0  0  0  0  0  0  0  0  0
    6.6151   43.7305   54.8713 C   0  0  0  0  0  0  0  0  0  0  0  0
    2.5749   42.5385   51.6907 N   0  0  0  0  0  0  0  0  0  0  0  0
    2.0651   41.7064   50.7294 C   0  0  0  0  0  0  0  0  0  0  0  0
    1.7620   42.0472   49.4980 N   0  0  0  0  0  0  0  0  0  0  0  0
    1.2790   40.9239   48.8579 N   0  0  0  0  0  0  0  0  0  0  0  0
    1.3044   39.9322   49.7191 C   0  0  0  0  0  0  0  0  0  0  0  0
    1.7901   40.3777   50.9065 N   0  0  0  0  0  0  0  0  0  0  0  0
    3.2721   44.2298   53.2967 H   0  0  0  0  0  0  0  0  0  0  0  0
    2.3553   43.5363   54.7371 H   0  0  0  0  0  0  0  0  0  0  0  0
    4.4736   43.9673   52.2428 H   0  0  0  0  0  0  0  0  0  0  0  0
    6.4429   45.1080   51.2455 H   0  0  0  0  0  0  0  0  0  0  0  0
    9.6604   45.0054   52.5084 H   0  0  0  0  0  0  0  0  0  0  0  0
    7.9785   46.0270   49.8507 H   0  0  0  0  0  0  0  0  0  0  0  0
    8.3022   48.1767   48.6402 H   0  0  0  0  0  0  0  0  0  0  0  0
    9.4440   50.0884   49.7649 H   0  0  0  0  0  0  0  0  0  0  0  0
   10.2495   49.8426   52.1118 H   0  0  0  0  0  0  0  0  0  0  0  0
    9.9195   47.6950   53.3263 H   0  0  0  0  0  0  0  0  0  0  0  0
    8.6472   44.4778   54.8959 H   0  0  0  0  0  0  0  0  0  0  0  0
    6.6723   43.3417   55.8987 H   0  0  0  0  0  0  0  0  0  0  0  0
    3.0596   43.3570   51.3469 H   0  0  0  0  0  0  0  0  0  0  0  0
    0.9823   38.9012   49.5108 H   0  0  0  0  0  0  0  0  0  0  0  0
    1.9338   39.8645   51.7677 H   0  0  0  0  0  0  0  0  0  0  0  0
  1  2  2  0
  2  3  1  0
  3  4  1  0
  4  5  1  0
  5  6  2  0
  6  7  1  0
  7  8  2  0
  8  9  1  0
  9 10  1  0
 10 11  2  0
 11 12  1  0
 12 13  2  0
 13 14  1  0
 14 15  2  0
  8 16  1  0
 16 17  2  0
  2 18  1  0
 18 19  1  0
 19 20  2  0
 20 21  1  0
 21 22  2  0
 22 23  1  0
 17  5  1  0
 23 19  1  0
 15 10  1  0
  3 24  1  0
  3 25  1  0
  6 26  1  0
  7 27  1  0
  9 28  1  0
 11 29  1  0
 12 30  1  0
 13 31  1  0
 14 32  1  0
 15 33  1  0
 16 34  1  0
 17 35  1  0
 18 36  1  0
 22 37  1  0
 23 38  1  0
M  END
>  <meeko>  (371) 
{"is_sidechain": false}

>  <CID>  (371) 
Z352550402

>  <pose_index>  (371) 
10

>  <docking_score>  (371) 
-8.014

>  <rmsd_to_best_selected>  (371) 
0.9920787330432764

>  <MWT>  (371) 
309.3289999999997

>  <TPSA>  (371) 
91.93

>  <logP>  (371) 
2.5657999999999994

>  <HBD>  (371) 
3

>  <HBA>  (371) 
5

>  <SMILES>  (371) 
[H]c1c([H])c([H])c(N([H])c2c([H])c([H])c(OC([H])([H])C(=O)N([H])c3nnc([H])n3[H])c([H])c2[H])c([H])c1[H]

$$$$
Z357964720_pose1
     RDKit          3D

 43 46  0  0  0  0  0  0  0  0999 V2000
   -0.4480   42.0300   53.4420 N   0  0  0  0  0  0  0  0  0  0  0  0
   -1.0540   43.5420   53.8700 S   0  0  0  0  0  0  0  0  0  0  0  0
   -1.5700   43.4540   55.2140 O   0  0  0  0  0  0  0  0  0  0  0  0
   -1.8650   43.9610   52.7490 O   0  0  0  0  0  0  0  0  0  0  0  0
    0.4240   44.5200   53.8950 C   0  0  0  0  0  0  0  0  0  0  0  0
    0.7750   45.2880   52.7880 C   0  0  0  0  0  0  0  0  0  0  0  0
    1.9480   46.0490   52.8270 C   0  0  0  0  0  0  0  0  0  0  0  0
    2.7770   46.0660   53.9630 C   0  0  0  0  0  0  0  0  0  0  0  0
    3.9500   46.8260   53.9190 N   0  0  0  0  0  0  0  0  0  0  0  0
    5.2380   46.5870   53.4500 C   0  0  0  0  0  0  0  0  0  0  0  0
    5.4690   45.8250   52.3810 N   0  0  0  0  0  0  0  0  0  0  0  0
    6.7510   45.6460   51.9930 C   0  0  0  0  0  0  0  0  0  0  0  0
    6.8920   44.7630   50.8250 C   0  0  0  0  0  0  0  0  0  0  0  0
    5.9430   43.7590   50.5720 C   0  0  0  0  0  0  0  0  0  0  0  0
    6.0680   42.9150   49.4670 C   0  0  0  0  0  0  0  0  0  0  0  0
    7.1520   43.0550   48.6020 C   0  0  0  0  0  0  0  0  0  0  0  0
    8.1120   44.0350   48.8450 C   0  0  0  0  0  0  0  0  0  0  0  0
    7.9850   44.8800   49.9510 C   0  0  0  0  0  0  0  0  0  0  0  0
    7.8340   46.2470   52.6480 C   0  0  0  0  0  0  0  0  0  0  0  0
    9.1990   46.1370   52.2750 C   0  0  0  0  0  0  0  0  0  0  0  0
   10.1910   46.7840   53.0070 C   0  0  0  0  0  0  0  0  0  0  0  0
    9.8350   47.5470   54.1090 C   0  0  0  0  0  0  0  0  0  0  0  0
    8.4880   47.6610   54.4660 C   0  0  0  0  0  0  0  0  0  0  0  0
    7.4790   47.0260   53.7510 C   0  0  0  0  0  0  0  0  0  0  0  0
    6.2110   47.1910   54.1470 N   0  0  0  0  0  0  0  0  0  0  0  0
    2.3930   45.2870   55.0630 C   0  0  0  0  0  0  0  0  0  0  0  0
    1.2210   44.5220   55.0390 C   0  0  0  0  0  0  0  0  0  0  0  0
   -1.1340   41.3180   53.6940 H   0  0  0  0  0  0  0  0  0  0  0  0
   -0.1770   41.9680   52.4610 H   0  0  0  0  0  0  0  0  0  0  0  0
    0.1366   45.2962   51.8922 H   0  0  0  0  0  0  0  0  0  0  0  0
    2.2287   46.6483   51.9484 H   0  0  0  0  0  0  0  0  0  0  0  0
    3.9370   47.7220   54.3840 H   0  0  0  0  0  0  0  0  0  0  0  0
    5.0890   43.6359   51.2543 H   0  0  0  0  0  0  0  0  0  0  0  0
    5.3110   42.1394   49.2789 H   0  0  0  0  0  0  0  0  0  0  0  0
    7.2493   42.3929   47.7290 H   0  0  0  0  0  0  0  0  0  0  0  0
    8.9705   44.1438   48.1659 H   0  0  0  0  0  0  0  0  0  0  0  0
    8.7511   45.6466   50.1393 H   0  0  0  0  0  0  0  0  0  0  0  0
    9.4762   45.5339   51.3979 H   0  0  0  0  0  0  0  0  0  0  0  0
   11.2472   46.6909   52.7140 H   0  0  0  0  0  0  0  0  0  0  0  0
   10.6086   48.0600   54.6993 H   0  0  0  0  0  0  0  0  0  0  0  0
    8.2182   48.2722   55.3399 H   0  0  0  0  0  0  0  0  0  0  0  0
    3.0252   45.2766   55.9631 H   0  0  0  0  0  0  0  0  0  0  0  0
    0.9307   43.9263   55.9170 H   0  0  0  0  0  0  0  0  0  0  0  0
  1  2  1  0
  2  3  2  0
  2  4  2  0
  2  5  1  0
  5  6  2  0
  6  7  1  0
  7  8  2  0
  8  9  1  0
  9 10  1  0
 10 11  2  0
 11 12  1  0
 12 13  1  0
 13 14  2  0
 14 15  1  0
 15 16  2  0
 16 17  1  0
 17 18  2  0
 12 19  2  0
 19 20  1  0
 20 21  2  0
 21 22  1  0
 22 23  2  0
 23 24  1  0
 24 25  2  0
  8 26  1  0
 26 27  2  0
 27  5  1  0
 25 10  1  0
 18 13  1  0
 24 19  1  0
  1 28  1  0
  1 29  1  0
  6 30  1  0
  7 31  1  0
  9 32  1  0
 14 33  1  0
 15 34  1  0
 16 35  1  0
 17 36  1  0
 18 37  1  0
 20 38  1  0
 21 39  1  0
 22 40  1  0
 23 41  1  0
 26 42  1  0
 27 43  1  0
M  END
>  <meeko>  (372) 
{"is_sidechain": false}

>  <CID>  (372) 
Z357964720

>  <pose_index>  (372) 
1

>  <docking_score>  (372) 
-10.455

>  <rmsd_to_best_selected>  (372) 
0.0

>  <MWT>  (372) 
376.44099999999986

>  <TPSA>  (372) 
97.97

>  <logP>  (372) 
3.687800000000002

>  <HBD>  (372) 
2

>  <HBA>  (372) 
5

>  <SMILES>  (372) 
[H]c1c([H])c([H])c(-c2nc(N([H])c3c([H])c([H])c(S(=O)(=O)N([H])[H])c([H])c3[H])nc3c([H])c([H])c([H])c([H])c23)c([H])c1[H]

$$$$
Z357964720_pose2
     RDKit          3D

 43 46  0  0  0  0  0  0  0  0999 V2000
   -0.8805   42.3142   53.2244 N   0  0  0  0  0  0  0  0  0  0  0  0
   -1.2886   43.9353   53.4372 S   0  0  0  0  0  0  0  0  0  0  0  0
   -2.0326   44.0521   54.6671 O   0  0  0  0  0  0  0  0  0  0  0  0
   -1.8144   44.3673   52.1620 O   0  0  0  0  0  0  0  0  0  0  0  0
    0.3068   44.6720   53.6694 C   0  0  0  0  0  0  0  0  0  0  0  0
    0.9338   44.6063   54.9113 C   0  0  0  0  0  0  0  0  0  0  0  0
    2.1905   45.1997   55.0745 C   0  0  0  0  0  0  0  0  0  0  0  0
    2.8417   45.8505   54.0110 C   0  0  0  0  0  0  0  0  0  0  0  0
    4.0824   46.4466   54.2566 N   0  0  0  0  0  0  0  0  0  0  0  0
    5.3458   46.3149   53.6887 C   0  0  0  0  0  0  0  0  0  0  0  0
    5.5509   45.5998   52.5823 N   0  0  0  0  0  0  0  0  0  0  0  0
    6.8084   45.5260   52.0973 C   0  0  0  0  0  0  0  0  0  0  0  0
    6.9249   44.6850   50.8956 C   0  0  0  0  0  0  0  0  0  0  0  0
    7.2736   43.3293   51.0063 C   0  0  0  0  0  0  0  0  0  0  0  0
    7.3883   42.5225   49.8719 C   0  0  0  0  0  0  0  0  0  0  0  0
    7.1657   43.0633   48.6076 C   0  0  0  0  0  0  0  0  0  0  0  0
    6.8346   44.4105   48.4761 C   0  0  0  0  0  0  0  0  0  0  0  0
    6.7185   45.2157   49.6116 C   0  0  0  0  0  0  0  0  0  0  0  0
    7.8913   46.1890   52.6889 C   0  0  0  0  0  0  0  0  0  0  0  0
    9.2296   46.1897   52.2146 C   0  0  0  0  0  0  0  0  0  0  0  0
   10.2241   46.8904   52.8908 C   0  0  0  0  0  0  0  0  0  0  0  0
    9.8973   47.5975   54.0393 C   0  0  0  0  0  0  0  0  0  0  0  0
    8.5770   47.6019   54.4974 C   0  0  0  0  0  0  0  0  0  0  0  0
    7.5648   46.9116   53.8378 C   0  0  0  0  0  0  0  0  0  0  0  0
    6.3221   46.9731   54.3299 N   0  0  0  0  0  0  0  0  0  0  0  0
    2.1861   45.8941   52.7735 C   0  0  0  0  0  0  0  0  0  0  0  0
    0.9293   45.3045   52.5947 C   0  0  0  0  0  0  0  0  0  0  0  0
    0.0471   42.1547   53.6198 H   0  0  0  0  0  0  0  0  0  0  0  0
   -1.5739   41.6721   53.6060 H   0  0  0  0  0  0  0  0  0  0  0  0
    0.4468   44.0939   55.7541 H   0  0  0  0  0  0  0  0  0  0  0  0
    2.6810   45.1561   56.0581 H   0  0  0  0  0  0  0  0  0  0  0  0
    4.1514   47.0539   55.0606 H   0  0  0  0  0  0  0  0  0  0  0  0
    7.4589   42.8964   52.0005 H   0  0  0  0  0  0  0  0  0  0  0  0
    7.6545   41.4604   49.9768 H   0  0  0  0  0  0  0  0  0  0  0  0
    7.2512   42.4276   47.7139 H   0  0  0  0  0  0  0  0  0  0  0  0
    6.6645   44.8400   47.4778 H   0  0  0  0  0  0  0  0  0  0  0  0
    6.4622   46.2794   49.4987 H   0  0  0  0  0  0  0  0  0  0  0  0
    9.4834   45.6300   51.3022 H   0  0  0  0  0  0  0  0  0  0  0  0
   11.2591   46.8839   52.5184 H   0  0  0  0  0  0  0  0  0  0  0  0
   10.6739   48.1518   54.5865 H   0  0  0  0  0  0  0  0  0  0  0  0
    8.3303   48.1686   55.4074 H   0  0  0  0  0  0  0  0  0  0  0  0
    2.6687   46.4019   51.9255 H   0  0  0  0  0  0  0  0  0  0  0  0
    0.4360   45.3402   51.6122 H   0  0  0  0  0  0  0  0  0  0  0  0
  1  2  1  0
  2  3  2  0
  2  4  2  0
  2  5  1  0
  5  6  2  0
  6  7  1  0
  7  8  2  0
  8  9  1  0
  9 10  1  0
 10 11  2  0
 11 12  1  0
 12 13  1  0
 13 14  2  0
 14 15  1  0
 15 16  2  0
 16 17  1  0
 17 18  2  0
 12 19  2  0
 19 20  1  0
 20 21  2  0
 21 22  1  0
 22 23  2  0
 23 24  1  0
 24 25  2  0
  8 26  1  0
 26 27  2  0
 27  5  1  0
 25 10  1  0
 18 13  1  0
 24 19  1  0
  1 28  1  0
  1 29  1  0
  6 30  1  0
  7 31  1  0
  9 32  1  0
 14 33  1  0
 15 34  1  0
 16 35  1  0
 17 36  1  0
 18 37  1  0
 20 38  1  0
 21 39  1  0
 22 40  1  0
 23 41  1  0
 26 42  1  0
 27 43  1  0
M  END
>  <meeko>  (373) 
{"is_sidechain": false}

>  <CID>  (373) 
Z357964720

>  <pose_index>  (373) 
2

>  <docking_score>  (373) 
-9.724

>  <rmsd_to_best_selected>  (373) 
0.969533946185782

>  <MWT>  (373) 
376.44099999999986

>  <TPSA>  (373) 
97.97

>  <logP>  (373) 
3.687800000000002

>  <HBD>  (373) 
2

>  <HBA>  (373) 
5

>  <SMILES>  (373) 
[H]c1c([H])c([H])c(-c2nc(N([H])c3c([H])c([H])c(S(=O)(=O)N([H])[H])c([H])c3[H])nc3c([H])c([H])c([H])c([H])c23)c([H])c1[H]

$$$$
Z357964720_pose3
     RDKit          3D

 43 46  0  0  0  0  0  0  0  0999 V2000
   -2.1686   44.4146   54.0386 N   0  0  0  0  0  0  0  0  0  0  0  0
   -1.0483   43.2650   53.5268 S   0  0  0  0  0  0  0  0  0  0  0  0
   -1.2808   43.0062   52.1264 O   0  0  0  0  0  0  0  0  0  0  0  0
   -1.0827   42.2247   54.5284 O   0  0  0  0  0  0  0  0  0  0  0  0
    0.4733   44.1584   53.6916 C   0  0  0  0  0  0  0  0  0  0  0  0
    0.7661   44.8288   54.8757 C   0  0  0  0  0  0  0  0  0  0  0  0
    1.9718   45.5330   54.9833 C   0  0  0  0  0  0  0  0  0  0  0  0
    2.8988   45.5694   53.9264 C   0  0  0  0  0  0  0  0  0  0  0  0
    4.0686   46.3175   54.0945 N   0  0  0  0  0  0  0  0  0  0  0  0
    5.3603   46.2180   53.5858 C   0  0  0  0  0  0  0  0  0  0  0  0
    5.6209   45.5865   52.4407 N   0  0  0  0  0  0  0  0  0  0  0  0
    6.9024   45.5379   52.0204 C   0  0  0  0  0  0  0  0  0  0  0  0
    7.0802   44.7910   50.7651 C   0  0  0  0  0  0  0  0  0  0  0  0
    6.1840   44.9678   49.6987 C   0  0  0  0  0  0  0  0  0  0  0  0
    6.3423   44.2626   48.5033 C   0  0  0  0  0  0  0  0  0  0  0  0
    7.3943   43.3611   48.3603 C   0  0  0  0  0  0  0  0  0  0  0  0
    8.2840   43.1594   49.4128 C   0  0  0  0  0  0  0  0  0  0  0  0
    8.1264   43.8668   50.6081 C   0  0  0  0  0  0  0  0  0  0  0  0
    7.9568   46.1425   52.7186 C   0  0  0  0  0  0  0  0  0  0  0  0
    9.3180   46.1656   52.3183 C   0  0  0  0  0  0  0  0  0  0  0  0
   10.2789   46.8022   53.1001 C   0  0  0  0  0  0  0  0  0  0  0  0
    9.8937   47.4226   54.2799 C   0  0  0  0  0  0  0  0  0  0  0  0
    8.5497   47.4058   54.6646 C   0  0  0  0  0  0  0  0  0  0  0  0
    7.5714   46.7789   53.9011 C   0  0  0  0  0  0  0  0  0  0  0  0
    6.3039   46.8143   54.3286 N   0  0  0  0  0  0  0  0  0  0  0  0
    2.5755   44.8795   52.7505 C   0  0  0  0  0  0  0  0  0  0  0  0
    1.3755   44.1698   52.6282 C   0  0  0  0  0  0  0  0  0  0  0  0
   -2.7092   44.7282   53.2308 H   0  0  0  0  0  0  0  0  0  0  0  0
   -2.7680   44.0835   54.7935 H   0  0  0  0  0  0  0  0  0  0  0  0
    0.0584   44.8057   55.7175 H   0  0  0  0  0  0  0  0  0  0  0  0
    2.1989   46.0700   55.9161 H   0  0  0  0  0  0  0  0  0  0  0  0
    4.0486   47.0566   54.7820 H   0  0  0  0  0  0  0  0  0  0  0  0
    5.3455   45.6717   49.8061 H   0  0  0  0  0  0  0  0  0  0  0  0
    5.6359   44.4194   47.6748 H   0  0  0  0  0  0  0  0  0  0  0  0
    7.5224   42.8091   47.4174 H   0  0  0  0  0  0  0  0  0  0  0  0
    9.1114   42.4429   49.3033 H   0  0  0  0  0  0  0  0  0  0  0  0
    8.8304   43.6976   51.4361 H   0  0  0  0  0  0  0  0  0  0  0  0
    9.6176   45.6755   51.3802 H   0  0  0  0  0  0  0  0  0  0  0  0
   11.3329   46.8129   52.7854 H   0  0  0  0  0  0  0  0  0  0  0  0
   10.6424   47.9254   54.9097 H   0  0  0  0  0  0  0  0  0  0  0  0
    8.2572   47.9041   55.6005 H   0  0  0  0  0  0  0  0  0  0  0  0
    3.2797   44.8961   51.9057 H   0  0  0  0  0  0  0  0  0  0  0  0
    1.1457   43.6252   51.7005 H   0  0  0  0  0  0  0  0  0  0  0  0
  1  2  1  0
  2  3  2  0
  2  4  2  0
  2  5  1  0
  5  6  2  0
  6  7  1  0
  7  8  2  0
  8  9  1  0
  9 10  1  0
 10 11  2  0
 11 12  1  0
 12 13  1  0
 13 14  2  0
 14 15  1  0
 15 16  2  0
 16 17  1  0
 17 18  2  0
 12 19  2  0
 19 20  1  0
 20 21  2  0
 21 22  1  0
 22 23  2  0
 23 24  1  0
 24 25  2  0
  8 26  1  0
 26 27  2  0
 27  5  1  0
 25 10  1  0
 18 13  1  0
 24 19  1  0
  1 28  1  0
  1 29  1  0
  6 30  1  0
  7 31  1  0
  9 32  1  0
 14 33  1  0
 15 34  1  0
 16 35  1  0
 17 36  1  0
 18 37  1  0
 20 38  1  0
 21 39  1  0
 22 40  1  0
 23 41  1  0
 26 42  1  0
 27 43  1  0
M  END
>  <meeko>  (374) 
{"is_sidechain": false}

>  <CID>  (374) 
Z357964720

>  <pose_index>  (374) 
3

>  <docking_score>  (374) 
-9.563

>  <rmsd_to_best_selected>  (374) 
1.3932410791823713

>  <MWT>  (374) 
376.44099999999986

>  <TPSA>  (374) 
97.97

>  <logP>  (374) 
3.687800000000002

>  <HBD>  (374) 
2

>  <HBA>  (374) 
5

>  <SMILES>  (374) 
[H]c1c([H])c([H])c(-c2nc(N([H])c3c([H])c([H])c(S(=O)(=O)N([H])[H])c([H])c3[H])nc3c([H])c([H])c([H])c([H])c23)c([H])c1[H]

$$$$
Z357964720_pose4
     RDKit          3D

 43 46  0  0  0  0  0  0  0  0999 V2000
   -1.9415   43.5065   53.7867 N   0  0  0  0  0  0  0  0  0  0  0  0
   -1.4373   44.9671   53.1177 S   0  0  0  0  0  0  0  0  0  0  0  0
   -2.0957   46.0365   53.8284 O   0  0  0  0  0  0  0  0  0  0  0  0
   -1.5543   44.7939   51.6875 O   0  0  0  0  0  0  0  0  0  0  0  0
    0.2817   44.9778   53.5473 C   0  0  0  0  0  0  0  0  0  0  0  0
    0.6751   45.2468   54.8558 C   0  0  0  0  0  0  0  0  0  0  0  0
    2.0376   45.2544   55.1732 C   0  0  0  0  0  0  0  0  0  0  0  0
    3.0210   44.9856   54.2036 C   0  0  0  0  0  0  0  0  0  0  0  0
    4.3644   45.0410   54.5867 N   0  0  0  0  0  0  0  0  0  0  0  0
    5.5482   45.3332   53.9161 C   0  0  0  0  0  0  0  0  0  0  0  0
    5.8232   44.8217   52.7152 N   0  0  0  0  0  0  0  0  0  0  0  0
    6.9949   45.1588   52.1345 C   0  0  0  0  0  0  0  0  0  0  0  0
    7.2088   44.5140   50.8294 C   0  0  0  0  0  0  0  0  0  0  0  0
    6.2292   43.6694   50.2830 C   0  0  0  0  0  0  0  0  0  0  0  0
    6.4232   43.0526   49.0451 C   0  0  0  0  0  0  0  0  0  0  0  0
    7.6054   43.2628   48.3398 C   0  0  0  0  0  0  0  0  0  0  0  0
    8.5966   44.0831   48.8731 C   0  0  0  0  0  0  0  0  0  0  0  0
    8.4010   44.7023   50.1104 C   0  0  0  0  0  0  0  0  0  0  0  0
    7.9121   46.0377   52.7264 C   0  0  0  0  0  0  0  0  0  0  0  0
    9.1406   46.4666   52.1607 C   0  0  0  0  0  0  0  0  0  0  0  0
    9.9723   47.3471   52.8479 C   0  0  0  0  0  0  0  0  0  0  0  0
    9.5878   47.8096   54.0985 C   0  0  0  0  0  0  0  0  0  0  0  0
    8.3724   47.3920   54.6468 C   0  0  0  0  0  0  0  0  0  0  0  0
    7.5225   46.5154   53.9799 C   0  0  0  0  0  0  0  0  0  0  0  0
    6.3706   46.1706   54.5649 N   0  0  0  0  0  0  0  0  0  0  0  0
    2.5922   44.7136   52.8977 C   0  0  0  0  0  0  0  0  0  0  0  0
    1.2317   44.7007   52.5657 C   0  0  0  0  0  0  0  0  0  0  0  0
   -2.0334   43.6219   54.7968 H   0  0  0  0  0  0  0  0  0  0  0  0
   -2.7956   43.1439   53.3653 H   0  0  0  0  0  0  0  0  0  0  0  0
   -0.0775   45.4511   55.6316 H   0  0  0  0  0  0  0  0  0  0  0  0
    2.3473   45.4758   56.2052 H   0  0  0  0  0  0  0  0  0  0  0  0
    4.5904   44.7369   55.5224 H   0  0  0  0  0  0  0  0  0  0  0  0
    5.2961   43.4911   50.8376 H   0  0  0  0  0  0  0  0  0  0  0  0
    5.6421   42.4007   48.6271 H   0  0  0  0  0  0  0  0  0  0  0  0
    7.7562   42.7815   47.3622 H   0  0  0  0  0  0  0  0  0  0  0  0
    9.5338   44.2435   48.3202 H   0  0  0  0  0  0  0  0  0  0  0  0
    9.1904   45.3454   50.5267 H   0  0  0  0  0  0  0  0  0  0  0  0
    9.4395   46.0994   51.1679 H   0  0  0  0  0  0  0  0  0  0  0  0
   10.9245   47.6727   52.4038 H   0  0  0  0  0  0  0  0  0  0  0  0
   10.2366   48.5017   54.6553 H   0  0  0  0  0  0  0  0  0  0  0  0
    8.0780   47.7685   55.6376 H   0  0  0  0  0  0  0  0  0  0  0  0
    3.3393   44.5060   52.1174 H   0  0  0  0  0  0  0  0  0  0  0  0
    0.9150   44.4733   51.5371 H   0  0  0  0  0  0  0  0  0  0  0  0
  1  2  1  0
  2  3  2  0
  2  4  2  0
  2  5  1  0
  5  6  2  0
  6  7  1  0
  7  8  2  0
  8  9  1  0
  9 10  1  0
 10 11  2  0
 11 12  1  0
 12 13  1  0
 13 14  2  0
 14 15  1  0
 15 16  2  0
 16 17  1  0
 17 18  2  0
 12 19  2  0
 19 20  1  0
 20 21  2  0
 21 22  1  0
 22 23  2  0
 23 24  1  0
 24 25  2  0
  8 26  1  0
 26 27  2  0
 27  5  1  0
 25 10  1  0
 18 13  1  0
 24 19  1  0
  1 28  1  0
  1 29  1  0
  6 30  1  0
  7 31  1  0
  9 32  1  0
 14 33  1  0
 15 34  1  0
 16 35  1  0
 17 36  1  0
 18 37  1  0
 20 38  1  0
 21 39  1  0
 22 40  1  0
 23 41  1  0
 26 42  1  0
 27 43  1  0
M  END
>  <meeko>  (375) 
{"is_sidechain": false}

>  <CID>  (375) 
Z357964720

>  <pose_index>  (375) 
4

>  <docking_score>  (375) 
-9.479

>  <rmsd_to_best_selected>  (375) 
1.2853133543126805

>  <MWT>  (375) 
376.44099999999986

>  <TPSA>  (375) 
97.97

>  <logP>  (375) 
3.687800000000002

>  <HBD>  (375) 
2

>  <HBA>  (375) 
5

>  <SMILES>  (375) 
[H]c1c([H])c([H])c(-c2nc(N([H])c3c([H])c([H])c(S(=O)(=O)N([H])[H])c([H])c3[H])nc3c([H])c([H])c([H])c([H])c23)c([H])c1[H]

$$$$
Z357964720_pose5
     RDKit          3D

 43 46  0  0  0  0  0  0  0  0999 V2000
   -0.9903   43.4880   51.8277 N   0  0  0  0  0  0  0  0  0  0  0  0
   -1.2883   44.4580   53.1722 S   0  0  0  0  0  0  0  0  0  0  0  0
   -1.8557   43.6286   54.2066 O   0  0  0  0  0  0  0  0  0  0  0  0
   -1.9573   45.6311   52.6571 O   0  0  0  0  0  0  0  0  0  0  0  0
    0.3573   44.9113   53.6499 C   0  0  0  0  0  0  0  0  0  0  0  0
    1.1193   45.7457   52.8366 C   0  0  0  0  0  0  0  0  0  0  0  0
    2.4172   46.0866   53.2298 C   0  0  0  0  0  0  0  0  0  0  0  0
    2.9694   45.6154   54.4346 C   0  0  0  0  0  0  0  0  0  0  0  0
    4.2839   45.9738   54.7487 N   0  0  0  0  0  0  0  0  0  0  0  0
    5.4841   45.9525   54.0448 C   0  0  0  0  0  0  0  0  0  0  0  0
    5.6267   45.2609   52.9140 N   0  0  0  0  0  0  0  0  0  0  0  0
    6.8257   45.2964   52.2949 C   0  0  0  0  0  0  0  0  0  0  0  0
    6.8814   44.4735   51.0760 C   0  0  0  0  0  0  0  0  0  0  0  0
    7.8262   44.7463   50.0747 C   0  0  0  0  0  0  0  0  0  0  0  0
    7.8865   43.9724   48.9132 C   0  0  0  0  0  0  0  0  0  0  0  0
    6.9942   42.9179   48.7332 C   0  0  0  0  0  0  0  0  0  0  0  0
    6.0393   42.6411   49.7083 C   0  0  0  0  0  0  0  0  0  0  0  0
    5.9810   43.4149   50.8699 C   0  0  0  0  0  0  0  0  0  0  0  0
    7.9080   46.0468   52.7736 C   0  0  0  0  0  0  0  0  0  0  0  0
    9.1805   46.1632   52.1580 C   0  0  0  0  0  0  0  0  0  0  0  0
   10.1813   46.9428   52.7318 C   0  0  0  0  0  0  0  0  0  0  0  0
    9.9236   47.6148   53.9184 C   0  0  0  0  0  0  0  0  0  0  0  0
    8.6647   47.5056   54.5164 C   0  0  0  0  0  0  0  0  0  0  0  0
    7.6487   46.7348   53.9609 C   0  0  0  0  0  0  0  0  0  0  0  0
    6.4664   46.6879   54.5867 N   0  0  0  0  0  0  0  0  0  0  0  0
    2.1751   44.7816   55.2334 C   0  0  0  0  0  0  0  0  0  0  0  0
    0.8737   44.4331   54.8542 C   0  0  0  0  0  0  0  0  0  0  0  0
   -0.1213   42.9739   51.9786 H   0  0  0  0  0  0  0  0  0  0  0  0
   -1.7659   42.8671   51.6006 H   0  0  0  0  0  0  0  0  0  0  0  0
    0.7045   46.1328   51.8942 H   0  0  0  0  0  0  0  0  0  0  0  0
    3.0208   46.7388   52.5815 H   0  0  0  0  0  0  0  0  0  0  0  0
    4.4744   46.2374   55.7039 H   0  0  0  0  0  0  0  0  0  0  0  0
    8.5296   45.5818   50.2064 H   0  0  0  0  0  0  0  0  0  0  0  0
    8.6380   44.1955   48.1415 H   0  0  0  0  0  0  0  0  0  0  0  0
    7.0439   42.3044   47.8215 H   0  0  0  0  0  0  0  0  0  0  0  0
    5.3304   41.8126   49.5637 H   0  0  0  0  0  0  0  0  0  0  0  0
    5.2204   43.1925   51.6329 H   0  0  0  0  0  0  0  0  0  0  0  0
    9.3791   45.6311   51.2159 H   0  0  0  0  0  0  0  0  0  0  0  0
   11.1665   47.0252   52.2494 H   0  0  0  0  0  0  0  0  0  0  0  0
   10.7061   48.2304   54.3860 H   0  0  0  0  0  0  0  0  0  0  0  0
    8.4717   48.0457   55.4550 H   0  0  0  0  0  0  0  0  0  0  0  0
    2.5830   44.3929   56.1782 H   0  0  0  0  0  0  0  0  0  0  0  0
    0.2625   43.7868   55.5013 H   0  0  0  0  0  0  0  0  0  0  0  0
  1  2  1  0
  2  3  2  0
  2  4  2  0
  2  5  1  0
  5  6  2  0
  6  7  1  0
  7  8  2  0
  8  9  1  0
  9 10  1  0
 10 11  2  0
 11 12  1  0
 12 13  1  0
 13 14  2  0
 14 15  1  0
 15 16  2  0
 16 17  1  0
 17 18  2  0
 12 19  2  0
 19 20  1  0
 20 21  2  0
 21 22  1  0
 22 23  2  0
 23 24  1  0
 24 25  2  0
  8 26  1  0
 26 27  2  0
 27  5  1  0
 25 10  1  0
 18 13  1  0
 24 19  1  0
  1 28  1  0
  1 29  1  0
  6 30  1  0
  7 31  1  0
  9 32  1  0
 14 33  1  0
 15 34  1  0
 16 35  1  0
 17 36  1  0
 18 37  1  0
 20 38  1  0
 21 39  1  0
 22 40  1  0
 23 41  1  0
 26 42  1  0
 27 43  1  0
M  END
>  <meeko>  (376) 
{"is_sidechain": false}

>  <CID>  (376) 
Z357964720

>  <pose_index>  (376) 
5

>  <docking_score>  (376) 
-9.471

>  <rmsd_to_best_selected>  (376) 
0.780655986215157

>  <MWT>  (376) 
376.44099999999986

>  <TPSA>  (376) 
97.97

>  <logP>  (376) 
3.687800000000002

>  <HBD>  (376) 
2

>  <HBA>  (376) 
5

>  <SMILES>  (376) 
[H]c1c([H])c([H])c(-c2nc(N([H])c3c([H])c([H])c(S(=O)(=O)N([H])[H])c([H])c3[H])nc3c([H])c([H])c([H])c([H])c23)c([H])c1[H]

$$$$
Z3590543759_pose3
     RDKit          3D

 39 42  0  0  0  0  0  0  0  0999 V2000
    6.3968   43.6475   54.1162 O   0  0  0  0  0  0  0  0  0  0  0  0
    6.3102   44.4869   53.2263 C   0  0  0  0  0  0  0  0  0  0  0  0
    5.1268   44.9711   52.6906 N   0  0  0  0  0  0  0  0  0  0  0  0
    3.8407   44.5963   52.9991 C   0  0  0  0  0  0  0  0  0  0  0  0
    3.1392   43.7718   52.0078 C   0  0  0  0  0  0  0  0  0  0  0  0
    1.8752   43.3434   52.1975 C   0  0  0  0  0  0  0  0  0  0  0  0
    1.1933   43.6943   53.3935 C   0  0  0  0  0  0  0  0  0  0  0  0
   -0.0111   43.4329   53.8507 N   0  0  0  0  0  0  0  0  0  0  0  0
   -0.1306   44.0392   55.0846 N   0  0  0  0  0  0  0  0  0  0  0  0
    1.0041   44.6517   55.3429 C   0  0  0  0  0  0  0  0  0  0  0  0
    1.8799   44.4704   54.3094 N   0  0  0  0  0  0  0  0  0  0  0  0
    3.1826   44.9191   54.1289 C   0  0  0  0  0  0  0  0  0  0  0  0
    7.5570   45.0791   52.6571 C   0  0  0  0  0  0  0  0  0  0  0  0
    7.9569   46.3721   53.0307 C   0  0  0  0  0  0  0  0  0  0  0  0
    7.1557   47.3038   54.2501 Cl  0  0  0  0  0  0  0  0  0  0  0  0
    9.0938   46.9490   52.4569 C   0  0  0  0  0  0  0  0  0  0  0  0
    9.8400   46.2442   51.5165 C   0  0  0  0  0  0  0  0  0  0  0  0
    9.4625   44.9533   51.1504 C   0  0  0  0  0  0  0  0  0  0  0  0
    8.3250   44.3590   51.7115 C   0  0  0  0  0  0  0  0  0  0  0  0
    7.9110   43.0871   51.4168 O   0  0  0  0  0  0  0  0  0  0  0  0
    7.0831   42.8870   50.2727 C   0  0  0  0  0  0  0  0  0  0  0  0
    7.9479   42.3222   49.1870 C   0  0  0  0  0  0  0  0  0  0  0  0
    8.4311   43.1967   48.0592 C   0  0  0  0  0  0  0  0  0  0  0  0
    7.4073   42.1264   47.7946 C   0  0  0  0  0  0  0  0  0  0  0  0
    5.2287   45.7647   52.0671 H   0  0  0  0  0  0  0  0  0  0  0  0
    3.6617   43.4947   51.0804 H   0  0  0  0  0  0  0  0  0  0  0  0
    1.3768   42.7282   51.4339 H   0  0  0  0  0  0  0  0  0  0  0  0
    1.2172   45.2258   56.2568 H   0  0  0  0  0  0  0  0  0  0  0  0
    3.6713   45.5317   54.9008 H   0  0  0  0  0  0  0  0  0  0  0  0
    9.3999   47.9641   52.7497 H   0  0  0  0  0  0  0  0  0  0  0  0
   10.7285   46.7065   51.0618 H   0  0  0  0  0  0  0  0  0  0  0  0
   10.0625   44.3971   50.4152 H   0  0  0  0  0  0  0  0  0  0  0  0
    6.2733   42.1825   50.5132 H   0  0  0  0  0  0  0  0  0  0  0  0
    6.6274   43.8356   49.9524 H   0  0  0  0  0  0  0  0  0  0  0  0
    8.4309   41.6725   49.9317 H   0  0  0  0  0  0  0  0  0  0  0  0
    8.1403   44.2570   48.0221 H   0  0  0  0  0  0  0  0  0  0  0  0
    9.4155   43.4519   47.6400 H   0  0  0  0  0  0  0  0  0  0  0  0
    6.3683   42.4043   47.5639 H   0  0  0  0  0  0  0  0  0  0  0  0
    7.3337   41.2753   47.1017 H   0  0  0  0  0  0  0  0  0  0  0  0
  1  2  2  0
  2  3  1  0
  3  4  1  0
  4  5  1  0
  5  6  2  0
  6  7  1  0
  7  8  2  0
  8  9  1  0
  9 10  2  0
 10 11  1  0
 11 12  1  0
  2 13  1  0
 13 14  2  0
 14 15  1  0
 14 16  1  0
 16 17  2  0
 17 18  1  0
 18 19  2  0
 19 20  1  0
 20 21  1  0
 21 22  1  0
 22 23  1  0
 23 24  1  0
 12  4  2  0
 19 13  1  0
 24 22  1  0
 11  7  1  0
  3 25  1  0
  5 26  1  0
  6 27  1  0
 10 28  1  0
 12 29  1  0
 16 30  1  0
 17 31  1  0
 18 32  1  0
 21 33  1  0
 21 34  1  0
 22 35  1  0
 23 36  1  0
 23 37  1  0
 24 38  1  0
 24 39  1  0
M  END
>  <meeko>  (377) 
{"is_sidechain": false}

>  <CID>  (377) 
Z3590543759

>  <pose_index>  (377) 
3

>  <docking_score>  (377) 
-8.438

>  <rmsd_to_best_selected>  (377) 
1.8247970696474647

>  <MWT>  (377) 
342.78599999999983

>  <TPSA>  (377) 
68.52000000000001

>  <logP>  (377) 
3.4238000000000017

>  <HBD>  (377) 
1

>  <HBA>  (377) 
5

>  <SMILES>  (377) 
[H]c1c([H])c(Cl)c(C(=O)N([H])c2c([H])c([H])c3nnc([H])n3c2[H])c(OC([H])([H])C2([H])C([H])([H])C2([H])[H])c1[H]

$$$$
Z3590543759_pose1
     RDKit          3D

 39 42  0  0  0  0  0  0  0  0999 V2000
    5.3050   46.7890   51.8080 O   0  0  0  0  0  0  0  0  0  0  0  0
    6.0210   45.8700   52.1890 C   0  0  0  0  0  0  0  0  0  0  0  0
    5.5760   44.6440   52.6580 N   0  0  0  0  0  0  0  0  0  0  0  0
    4.2790   44.2230   52.8320 C   0  0  0  0  0  0  0  0  0  0  0  0
    3.8200   43.1310   51.9660 C   0  0  0  0  0  0  0  0  0  0  0  0
    2.5690   42.6330   52.0420 C   0  0  0  0  0  0  0  0  0  0  0  0
    1.6610   43.1750   52.9900 C   0  0  0  0  0  0  0  0  0  0  0  0
    0.4100   42.9050   53.2930 N   0  0  0  0  0  0  0  0  0  0  0  0
    0.0330   43.7590   54.3090 N   0  0  0  0  0  0  0  0  0  0  0  0
    1.0630   44.5240   54.5950 C   0  0  0  0  0  0  0  0  0  0  0  0
    2.1220   44.2010   53.7950 N   0  0  0  0  0  0  0  0  0  0  0  0
    3.4080   44.7250   53.7280 C   0  0  0  0  0  0  0  0  0  0  0  0
    7.5050   46.0330   52.1430 C   0  0  0  0  0  0  0  0  0  0  0  0
    8.1900   46.5630   53.2480 C   0  0  0  0  0  0  0  0  0  0  0  0
    7.4280   46.9230   54.7600 Cl  0  0  0  0  0  0  0  0  0  0  0  0
    9.5720   46.7670   53.1860 C   0  0  0  0  0  0  0  0  0  0  0  0
   10.2780   46.4420   52.0320 C   0  0  0  0  0  0  0  0  0  0  0  0
    9.6120   45.8980   50.9340 C   0  0  0  0  0  0  0  0  0  0  0  0
    8.2280   45.6900   50.9760 C   0  0  0  0  0  0  0  0  0  0  0  0
    7.5130   45.1370   49.9460 O   0  0  0  0  0  0  0  0  0  0  0  0
    7.8170   43.8010   49.5470 C   0  0  0  0  0  0  0  0  0  0  0  0
    6.5520   43.0050   49.6490 C   0  0  0  0  0  0  0  0  0  0  0  0
    6.5980   41.5240   49.9260 C   0  0  0  0  0  0  0  0  0  0  0  0
    6.1700   42.0220   48.5720 C   0  0  0  0  0  0  0  0  0  0  0  0
    6.2990   43.9450   52.7940 H   0  0  0  0  0  0  0  0  0  0  0  0
    4.5188   42.7048   51.2311 H   0  0  0  0  0  0  0  0  0  0  0  0
    2.2551   41.8153   51.3765 H   0  0  0  0  0  0  0  0  0  0  0  0
    1.0709   45.3090   55.3655 H   0  0  0  0  0  0  0  0  0  0  0  0
    3.7110   45.5414   54.4001 H   0  0  0  0  0  0  0  0  0  0  0  0
   10.1032   47.1862   54.0532 H   0  0  0  0  0  0  0  0  0  0  0  0
   11.3634   46.6144   51.9856 H   0  0  0  0  0  0  0  0  0  0  0  0
   10.1776   45.6306   50.0292 H   0  0  0  0  0  0  0  0  0  0  0  0
    8.1842   43.7925   48.5101 H   0  0  0  0  0  0  0  0  0  0  0  0
    8.5993   43.3717   50.1902 H   0  0  0  0  0  0  0  0  0  0  0  0
    6.0639   43.8714   50.1192 H   0  0  0  0  0  0  0  0  0  0  0  0
    7.5668   41.0166   50.0442 H   0  0  0  0  0  0  0  0  0  0  0  0
    6.1578   40.8610   50.6854 H   0  0  0  0  0  0  0  0  0  0  0  0
    6.8260   41.8785   47.7008 H   0  0  0  0  0  0  0  0  0  0  0  0
    5.2875   41.8736   47.9323 H   0  0  0  0  0  0  0  0  0  0  0  0
  1  2  2  0
  2  3  1  0
  3  4  1  0
  4  5  1  0
  5  6  2  0
  6  7  1  0
  7  8  2  0
  8  9  1  0
  9 10  2  0
 10 11  1  0
 11 12  1  0
  2 13  1  0
 13 14  2  0
 14 15  1  0
 14 16  1  0
 16 17  2  0
 17 18  1  0
 18 19  2  0
 19 20  1  0
 20 21  1  0
 21 22  1  0
 22 23  1  0
 23 24  1  0
 12  4  2  0
 19 13  1  0
 24 22  1  0
 11  7  1  0
  3 25  1  0
  5 26  1  0
  6 27  1  0
 10 28  1  0
 12 29  1  0
 16 30  1  0
 17 31  1  0
 18 32  1  0
 21 33  1  0
 21 34  1  0
 22 35  1  0
 23 36  1  0
 23 37  1  0
 24 38  1  0
 24 39  1  0
M  END
>  <meeko>  (378) 
{"is_sidechain": false}

>  <CID>  (378) 
Z3590543759

>  <pose_index>  (378) 
1

>  <docking_score>  (378) 
-8.844

>  <rmsd_to_best_selected>  (378) 
0.0

>  <MWT>  (378) 
342.78599999999983

>  <TPSA>  (378) 
68.52000000000001

>  <logP>  (378) 
3.4238000000000017

>  <HBD>  (378) 
1

>  <HBA>  (378) 
5

>  <SMILES>  (378) 
[H]c1c([H])c(Cl)c(C(=O)N([H])c2c([H])c([H])c3nnc([H])n3c2[H])c(OC([H])([H])C2([H])C([H])([H])C2([H])[H])c1[H]

$$$$
Z3590543759_pose5
     RDKit          3D

 39 42  0  0  0  0  0  0  0  0999 V2000
    4.9112   44.8496   50.8856 O   0  0  0  0  0  0  0  0  0  0  0  0
    5.5386   44.9827   51.9306 C   0  0  0  0  0  0  0  0  0  0  0  0
    5.0223   44.8126   53.2062 N   0  0  0  0  0  0  0  0  0  0  0  0
    3.7301   44.5096   53.5645 C   0  0  0  0  0  0  0  0  0  0  0  0
    3.2220   43.1975   53.1463 C   0  0  0  0  0  0  0  0  0  0  0  0
    1.9711   42.7878   53.4374 C   0  0  0  0  0  0  0  0  0  0  0  0
    1.1122   43.6446   54.1741 C   0  0  0  0  0  0  0  0  0  0  0  0
   -0.1269   43.5272   54.5993 N   0  0  0  0  0  0  0  0  0  0  0  0
   -0.4500   44.6869   55.2729 N   0  0  0  0  0  0  0  0  0  0  0  0
    0.5995   45.4779   55.2373 C   0  0  0  0  0  0  0  0  0  0  0  0
    1.6186   44.8735   54.5579 N   0  0  0  0  0  0  0  0  0  0  0  0
    2.9053   45.3109   54.2654 C   0  0  0  0  0  0  0  0  0  0  0  0
    6.9882   45.3387   51.8733 C   0  0  0  0  0  0  0  0  0  0  0  0
    7.4109   46.6296   52.2299 C   0  0  0  0  0  0  0  0  0  0  0  0
    6.3534   47.8328   52.8861 Cl  0  0  0  0  0  0  0  0  0  0  0  0
    8.7602   46.9800   52.1232 C   0  0  0  0  0  0  0  0  0  0  0  0
    9.6936   46.0519   51.6699 C   0  0  0  0  0  0  0  0  0  0  0  0
    9.2879   44.7626   51.3290 C   0  0  0  0  0  0  0  0  0  0  0  0
    7.9406   44.3926   51.4254 C   0  0  0  0  0  0  0  0  0  0  0  0
    7.4759   43.1384   51.1319 O   0  0  0  0  0  0  0  0  0  0  0  0
    8.1685   42.3678   50.1499 C   0  0  0  0  0  0  0  0  0  0  0  0
    7.7079   42.8390   48.8043 C   0  0  0  0  0  0  0  0  0  0  0  0
    7.9529   42.0036   47.5744 C   0  0  0  0  0  0  0  0  0  0  0  0
    8.6986   43.2961   47.7663 C   0  0  0  0  0  0  0  0  0  0  0  0
    5.7077   44.8174   53.9534 H   0  0  0  0  0  0  0  0  0  0  0  0
    3.8829   42.5273   52.5771 H   0  0  0  0  0  0  0  0  0  0  0  0
    1.6196   41.7991   53.1072 H   0  0  0  0  0  0  0  0  0  0  0  0
    0.6495   46.4798   55.6887 H   0  0  0  0  0  0  0  0  0  0  0  0
    3.2461   46.3008   54.6028 H   0  0  0  0  0  0  0  0  0  0  0  0
    9.0858   47.9940   52.3987 H   0  0  0  0  0  0  0  0  0  0  0  0
   10.7524   46.3364   51.5806 H   0  0  0  0  0  0  0  0  0  0  0  0
   10.0316   44.0303   50.9816 H   0  0  0  0  0  0  0  0  0  0  0  0
    9.2535   42.5187   50.2501 H   0  0  0  0  0  0  0  0  0  0  0  0
    7.9591   41.2956   50.2788 H   0  0  0  0  0  0  0  0  0  0  0  0
    6.8218   43.2832   49.2814 H   0  0  0  0  0  0  0  0  0  0  0  0
    8.4845   41.0443   47.6581 H   0  0  0  0  0  0  0  0  0  0  0  0
    7.3178   41.5825   46.7810 H   0  0  0  0  0  0  0  0  0  0  0  0
    9.7755   43.2815   47.9901 H   0  0  0  0  0  0  0  0  0  0  0  0
    8.8344   44.2110   47.1709 H   0  0  0  0  0  0  0  0  0  0  0  0
  1  2  2  0
  2  3  1  0
  3  4  1  0
  4  5  1  0
  5  6  2  0
  6  7  1  0
  7  8  2  0
  8  9  1  0
  9 10  2  0
 10 11  1  0
 11 12  1  0
  2 13  1  0
 13 14  2  0
 14 15  1  0
 14 16  1  0
 16 17  2  0
 17 18  1  0
 18 19  2  0
 19 20  1  0
 20 21  1  0
 21 22  1  0
 22 23  1  0
 23 24  1  0
 12  4  2  0
 19 13  1  0
 24 22  1  0
 11  7  1  0
  3 25  1  0
  5 26  1  0
  6 27  1  0
 10 28  1  0
 12 29  1  0
 16 30  1  0
 17 31  1  0
 18 32  1  0
 21 33  1  0
 21 34  1  0
 22 35  1  0
 23 36  1  0
 23 37  1  0
 24 38  1  0
 24 39  1  0
M  END
>  <meeko>  (379) 
{"is_sidechain": false}

>  <CID>  (379) 
Z3590543759

>  <pose_index>  (379) 
5

>  <docking_score>  (379) 
-8.144

>  <rmsd_to_best_selected>  (379) 
1.9004554776015192

>  <MWT>  (379) 
342.78599999999983

>  <TPSA>  (379) 
68.52000000000001

>  <logP>  (379) 
3.4238000000000017

>  <HBD>  (379) 
1

>  <HBA>  (379) 
5

>  <SMILES>  (379) 
[H]c1c([H])c(Cl)c(C(=O)N([H])c2c([H])c([H])c3nnc([H])n3c2[H])c(OC([H])([H])C2([H])C([H])([H])C2([H])[H])c1[H]

$$$$
Z3590543759_pose6
     RDKit          3D

 39 42  0  0  0  0  0  0  0  0999 V2000
    5.0835   46.4663   51.0073 O   0  0  0  0  0  0  0  0  0  0  0  0
    5.8173   45.8189   51.7455 C   0  0  0  0  0  0  0  0  0  0  0  0
    5.4024   44.8394   52.6347 N   0  0  0  0  0  0  0  0  0  0  0  0
    4.1189   44.4252   52.9020 C   0  0  0  0  0  0  0  0  0  0  0  0
    3.5266   43.4668   51.9612 C   0  0  0  0  0  0  0  0  0  0  0  0
    2.2761   42.9894   52.1176 C   0  0  0  0  0  0  0  0  0  0  0  0
    1.5003   43.4192   53.2262 C   0  0  0  0  0  0  0  0  0  0  0  0
    0.2818   43.1380   53.6346 N   0  0  0  0  0  0  0  0  0  0  0  0
    0.0509   43.8570   54.7887 N   0  0  0  0  0  0  0  0  0  0  0  0
    1.1345   44.5564   55.0502 C   0  0  0  0  0  0  0  0  0  0  0  0
    2.0843   44.3215   54.0976 N   0  0  0  0  0  0  0  0  0  0  0  0
    3.3719   44.8225   53.9507 C   0  0  0  0  0  0  0  0  0  0  0  0
    7.2913   46.0575   51.7035 C   0  0  0  0  0  0  0  0  0  0  0  0
    7.8637   47.0642   52.4987 C   0  0  0  0  0  0  0  0  0  0  0  0
    6.9727   47.9823   53.6639 Cl  0  0  0  0  0  0  0  0  0  0  0  0
    9.2346   47.3245   52.4193 C   0  0  0  0  0  0  0  0  0  0  0  0
   10.0421   46.5867   51.5583 C   0  0  0  0  0  0  0  0  0  0  0  0
    9.4877   45.5729   50.7775 C   0  0  0  0  0  0  0  0  0  0  0  0
    8.1154   45.2995   50.8401 C   0  0  0  0  0  0  0  0  0  0  0  0
    7.5082   44.3028   50.1211 O   0  0  0  0  0  0  0  0  0  0  0  0
    8.3292   43.3252   49.4840 C   0  0  0  0  0  0  0  0  0  0  0  0
    7.8247   41.9773   49.8980 C   0  0  0  0  0  0  0  0  0  0  0  0
    6.7678   41.2729   49.0872 C   0  0  0  0  0  0  0  0  0  0  0  0
    6.4326   41.8112   50.4520 C   0  0  0  0  0  0  0  0  0  0  0  0
    6.1479   44.3010   53.0626 H   0  0  0  0  0  0  0  0  0  0  0  0
    4.1225   43.1275   51.1010 H   0  0  0  0  0  0  0  0  0  0  0  0
    1.8604   42.2736   51.3932 H   0  0  0  0  0  0  0  0  0  0  0  0
    1.2572   45.2313   55.9101 H   0  0  0  0  0  0  0  0  0  0  0  0
    3.7774   45.5362   54.6831 H   0  0  0  0  0  0  0  0  0  0  0  0
    9.6778   48.1168   53.0405 H   0  0  0  0  0  0  0  0  0  0  0  0
   11.1186   46.8036   51.4937 H   0  0  0  0  0  0  0  0  0  0  0  0
   10.1323   44.9842   50.1083 H   0  0  0  0  0  0  0  0  0  0  0  0
    8.2621   43.4323   48.3913 H   0  0  0  0  0  0  0  0  0  0  0  0
    9.3820   43.4523   49.7765 H   0  0  0  0  0  0  0  0  0  0  0  0
    8.8360   41.7242   50.2490 H   0  0  0  0  0  0  0  0  0  0  0  0
    6.3524   41.7537   48.1893 H   0  0  0  0  0  0  0  0  0  0  0  0
    6.6893   40.2908   48.5981 H   0  0  0  0  0  0  0  0  0  0  0  0
    5.7724   42.6854   50.5515 H   0  0  0  0  0  0  0  0  0  0  0  0
    6.0078   41.3855   51.3731 H   0  0  0  0  0  0  0  0  0  0  0  0
  1  2  2  0
  2  3  1  0
  3  4  1  0
  4  5  1  0
  5  6  2  0
  6  7  1  0
  7  8  2  0
  8  9  1  0
  9 10  2  0
 10 11  1  0
 11 12  1  0
  2 13  1  0
 13 14  2  0
 14 15  1  0
 14 16  1  0
 16 17  2  0
 17 18  1  0
 18 19  2  0
 19 20  1  0
 20 21  1  0
 21 22  1  0
 22 23  1  0
 23 24  1  0
 12  4  2  0
 19 13  1  0
 24 22  1  0
 11  7  1  0
  3 25  1  0
  5 26  1  0
  6 27  1  0
 10 28  1  0
 12 29  1  0
 16 30  1  0
 17 31  1  0
 18 32  1  0
 21 33  1  0
 21 34  1  0
 22 35  1  0
 23 36  1  0
 23 37  1  0
 24 38  1  0
 24 39  1  0
M  END
>  <meeko>  (380) 
{"is_sidechain": false}

>  <CID>  (380) 
Z3590543759

>  <pose_index>  (380) 
6

>  <docking_score>  (380) 
-8.083

>  <rmsd_to_best_selected>  (380) 
0.9109314034779306

>  <MWT>  (380) 
342.78599999999983

>  <TPSA>  (380) 
68.52000000000001

>  <logP>  (380) 
3.4238000000000017

>  <HBD>  (380) 
1

>  <HBA>  (380) 
5

>  <SMILES>  (380) 
[H]c1c([H])c(Cl)c(C(=O)N([H])c2c([H])c([H])c3nnc([H])n3c2[H])c(OC([H])([H])C2([H])C([H])([H])C2([H])[H])c1[H]

$$$$
Z3590543759_pose7
     RDKit          3D

 39 42  0  0  0  0  0  0  0  0999 V2000
    6.2547   45.5940   54.2976 O   0  0  0  0  0  0  0  0  0  0  0  0
    6.3386   45.3814   53.0932 C   0  0  0  0  0  0  0  0  0  0  0  0
    5.3593   44.7908   52.3099 N   0  0  0  0  0  0  0  0  0  0  0  0
    4.1407   44.2933   52.7083 C   0  0  0  0  0  0  0  0  0  0  0  0
    3.6771   43.0728   52.0377 C   0  0  0  0  0  0  0  0  0  0  0  0
    2.4991   42.4914   52.3425 C   0  0  0  0  0  0  0  0  0  0  0  0
    1.6767   43.0700   53.3455 C   0  0  0  0  0  0  0  0  0  0  0  0
    0.5071   42.7406   53.8479 N   0  0  0  0  0  0  0  0  0  0  0  0
    0.1872   43.6776   54.8091 N   0  0  0  0  0  0  0  0  0  0  0  0
    1.1695   44.5492   54.8636 C   0  0  0  0  0  0  0  0  0  0  0  0
    2.1400   44.2174   53.9612 N   0  0  0  0  0  0  0  0  0  0  0  0
    3.3508   44.8295   53.6594 C   0  0  0  0  0  0  0  0  0  0  0  0
    7.5744   45.7955   52.3626 C   0  0  0  0  0  0  0  0  0  0  0  0
    7.9165   47.1543   52.2729 C   0  0  0  0  0  0  0  0  0  0  0  0
    7.0557   48.4121   53.0931 Cl  0  0  0  0  0  0  0  0  0  0  0  0
    9.0424   47.5462   51.5434 C   0  0  0  0  0  0  0  0  0  0  0  0
    9.8339   46.5950   50.9068 C   0  0  0  0  0  0  0  0  0  0  0  0
    9.5140   45.2417   51.0032 C   0  0  0  0  0  0  0  0  0  0  0  0
    8.3881   44.8282   51.7263 C   0  0  0  0  0  0  0  0  0  0  0  0
    8.0288   43.5159   51.8843 O   0  0  0  0  0  0  0  0  0  0  0  0
    8.1797   42.6299   50.7765 C   0  0  0  0  0  0  0  0  0  0  0  0
    6.8258   42.4448   50.1624 C   0  0  0  0  0  0  0  0  0  0  0  0
    6.6832   41.8585   48.7814 C   0  0  0  0  0  0  0  0  0  0  0  0
    6.3716   43.3117   49.0167 C   0  0  0  0  0  0  0  0  0  0  0  0
    5.5282   44.8215   51.3101 H   0  0  0  0  0  0  0  0  0  0  0  0
    4.3106   42.6180   51.2620 H   0  0  0  0  0  0  0  0  0  0  0  0
    2.1785   41.5782   51.8197 H   0  0  0  0  0  0  0  0  0  0  0  0
    1.2051   45.4182   55.5371 H   0  0  0  0  0  0  0  0  0  0  0  0
    3.6607   45.7413   54.1910 H   0  0  0  0  0  0  0  0  0  0  0  0
    9.3043   48.6122   51.4721 H   0  0  0  0  0  0  0  0  0  0  0  0
   10.7132   46.9115   50.3266 H   0  0  0  0  0  0  0  0  0  0  0  0
   10.1502   44.4934   50.5080 H   0  0  0  0  0  0  0  0  0  0  0  0
    8.8707   43.0644   50.0391 H   0  0  0  0  0  0  0  0  0  0  0  0
    8.5923   41.6645   51.1049 H   0  0  0  0  0  0  0  0  0  0  0  0
    6.4268   42.2013   51.1581 H   0  0  0  0  0  0  0  0  0  0  0  0
    7.5788   41.5738   48.2097 H   0  0  0  0  0  0  0  0  0  0  0  0
    6.1373   41.0060   48.3511 H   0  0  0  0  0  0  0  0  0  0  0  0
    7.0395   44.0889   48.6169 H   0  0  0  0  0  0  0  0  0  0  0  0
    5.5036   43.9609   48.8296 H   0  0  0  0  0  0  0  0  0  0  0  0
  1  2  2  0
  2  3  1  0
  3  4  1  0
  4  5  1  0
  5  6  2  0
  6  7  1  0
  7  8  2  0
  8  9  1  0
  9 10  2  0
 10 11  1  0
 11 12  1  0
  2 13  1  0
 13 14  2  0
 14 15  1  0
 14 16  1  0
 16 17  2  0
 17 18  1  0
 18 19  2  0
 19 20  1  0
 20 21  1  0
 21 22  1  0
 22 23  1  0
 23 24  1  0
 12  4  2  0
 19 13  1  0
 24 22  1  0
 11  7  1  0
  3 25  1  0
  5 26  1  0
  6 27  1  0
 10 28  1  0
 12 29  1  0
 16 30  1  0
 17 31  1  0
 18 32  1  0
 21 33  1  0
 21 34  1  0
 22 35  1  0
 23 36  1  0
 23 37  1  0
 24 38  1  0
 24 39  1  0
M  END
>  <meeko>  (381) 
{"is_sidechain": false}

>  <CID>  (381) 
Z3590543759

>  <pose_index>  (381) 
7

>  <docking_score>  (381) 
-7.923

>  <rmsd_to_best_selected>  (381) 
1.477667952008002

>  <MWT>  (381) 
342.78599999999983

>  <TPSA>  (381) 
68.52000000000001

>  <logP>  (381) 
3.4238000000000017

>  <HBD>  (381) 
1

>  <HBA>  (381) 
5

>  <SMILES>  (381) 
[H]c1c([H])c(Cl)c(C(=O)N([H])c2c([H])c([H])c3nnc([H])n3c2[H])c(OC([H])([H])C2([H])C([H])([H])C2([H])[H])c1[H]

$$$$
Z3590543759_pose8
     RDKit          3D

 39 42  0  0  0  0  0  0  0  0999 V2000
    5.2174   46.5054   51.3411 O   0  0  0  0  0  0  0  0  0  0  0  0
    5.9805   45.7971   51.9878 C   0  0  0  0  0  0  0  0  0  0  0  0
    5.6057   44.7100   52.7634 N   0  0  0  0  0  0  0  0  0  0  0  0
    4.3379   44.2354   53.0011 C   0  0  0  0  0  0  0  0  0  0  0  0
    3.7591   43.3615   51.9733 C   0  0  0  0  0  0  0  0  0  0  0  0
    2.5235   42.8348   52.0939 C   0  0  0  0  0  0  0  0  0  0  0  0
    1.7519   43.1266   53.2491 C   0  0  0  0  0  0  0  0  0  0  0  0
    0.5480   42.7702   53.6400 N   0  0  0  0  0  0  0  0  0  0  0  0
    0.3144   43.3601   54.8647 N   0  0  0  0  0  0  0  0  0  0  0  0
    1.3815   44.0595   55.1840 C   0  0  0  0  0  0  0  0  0  0  0  0
    2.3241   43.9509   54.2021 N   0  0  0  0  0  0  0  0  0  0  0  0
    3.5953   44.5010   54.0931 C   0  0  0  0  0  0  0  0  0  0  0  0
    7.4467   46.0775   51.9509 C   0  0  0  0  0  0  0  0  0  0  0  0
    7.9234   47.3717   52.2182 C   0  0  0  0  0  0  0  0  0  0  0  0
    6.9077   48.6734   52.7397 Cl  0  0  0  0  0  0  0  0  0  0  0  0
    9.2906   47.6482   52.1300 C   0  0  0  0  0  0  0  0  0  0  0  0
   10.1896   46.6432   51.7841 C   0  0  0  0  0  0  0  0  0  0  0  0
    9.7300   45.3501   51.5338 C   0  0  0  0  0  0  0  0  0  0  0  0
    8.3637   45.0548   51.6133 C   0  0  0  0  0  0  0  0  0  0  0  0
    7.8464   43.8029   51.4054 O   0  0  0  0  0  0  0  0  0  0  0  0
    7.9863   43.2133   50.1139 C   0  0  0  0  0  0  0  0  0  0  0  0
    6.6088   43.0012   49.5663 C   0  0  0  0  0  0  0  0  0  0  0  0
    5.9952   41.6248   49.5486 C   0  0  0  0  0  0  0  0  0  0  0  0
    6.4018   42.2827   48.2576 C   0  0  0  0  0  0  0  0  0  0  0  0
    6.3717   44.1462   53.1139 H   0  0  0  0  0  0  0  0  0  0  0  0
    4.3520   43.1290   51.0764 H   0  0  0  0  0  0  0  0  0  0  0  0
    2.1174   42.1852   51.3046 H   0  0  0  0  0  0  0  0  0  0  0  0
    1.4976   44.6462   56.1072 H   0  0  0  0  0  0  0  0  0  0  0  0
    3.9914   45.1469   54.8906 H   0  0  0  0  0  0  0  0  0  0  0  0
    9.6579   48.6646   52.3349 H   0  0  0  0  0  0  0  0  0  0  0  0
   11.2634   46.8690   51.7080 H   0  0  0  0  0  0  0  0  0  0  0  0
   10.4459   44.5569   51.2723 H   0  0  0  0  0  0  0  0  0  0  0  0
    8.5540   43.8853   49.4534 H   0  0  0  0  0  0  0  0  0  0  0  0
    8.5291   42.2589   50.1797 H   0  0  0  0  0  0  0  0  0  0  0  0
    6.3140   43.9811   49.9700 H   0  0  0  0  0  0  0  0  0  0  0  0
    6.5642   40.7642   49.9302 H   0  0  0  0  0  0  0  0  0  0  0  0
    5.0658   41.1828   49.9370 H   0  0  0  0  0  0  0  0  0  0  0  0
    7.2680   41.9028   47.6959 H   0  0  0  0  0  0  0  0  0  0  0  0
    5.8926   42.5205   47.3120 H   0  0  0  0  0  0  0  0  0  0  0  0
  1  2  2  0
  2  3  1  0
  3  4  1  0
  4  5  1  0
  5  6  2  0
  6  7  1  0
  7  8  2  0
  8  9  1  0
  9 10  2  0
 10 11  1  0
 11 12  1  0
  2 13  1  0
 13 14  2  0
 14 15  1  0
 14 16  1  0
 16 17  2  0
 17 18  1  0
 18 19  2  0
 19 20  1  0
 20 21  1  0
 21 22  1  0
 22 23  1  0
 23 24  1  0
 12  4  2  0
 19 13  1  0
 24 22  1  0
 11  7  1  0
  3 25  1  0
  5 26  1  0
  6 27  1  0
 10 28  1  0
 12 29  1  0
 16 30  1  0
 17 31  1  0
 18 32  1  0
 21 33  1  0
 21 34  1  0
 22 35  1  0
 23 36  1  0
 23 37  1  0
 24 38  1  0
 24 39  1  0
M  END
>  <meeko>  (382) 
{"is_sidechain": false}

>  <CID>  (382) 
Z3590543759

>  <pose_index>  (382) 
8

>  <docking_score>  (382) 
-7.868

>  <rmsd_to_best_selected>  (382) 
0.9612900556709224

>  <MWT>  (382) 
342.78599999999983

>  <TPSA>  (382) 
68.52000000000001

>  <logP>  (382) 
3.4238000000000017

>  <HBD>  (382) 
1

>  <HBA>  (382) 
5

>  <SMILES>  (382) 
[H]c1c([H])c(Cl)c(C(=O)N([H])c2c([H])c([H])c3nnc([H])n3c2[H])c(OC([H])([H])C2([H])C([H])([H])C2([H])[H])c1[H]

$$$$
Z3590543759_pose9
     RDKit          3D

 39 42  0  0  0  0  0  0  0  0999 V2000
    6.6580   44.9145   54.5031 O   0  0  0  0  0  0  0  0  0  0  0  0
    6.6380   45.1376   53.2988 C   0  0  0  0  0  0  0  0  0  0  0  0
    5.5581   44.9158   52.4577 N   0  0  0  0  0  0  0  0  0  0  0  0
    4.3339   44.3745   52.7736 C   0  0  0  0  0  0  0  0  0  0  0  0
    4.2216   42.9143   52.7004 C   0  0  0  0  0  0  0  0  0  0  0  0
    3.0733   42.2682   52.9871 C   0  0  0  0  0  0  0  0  0  0  0  0
    1.9319   43.0180   53.3757 C   0  0  0  0  0  0  0  0  0  0  0  0
    0.7050   42.6815   53.7096 N   0  0  0  0  0  0  0  0  0  0  0  0
    0.0167   43.8407   53.9978 N   0  0  0  0  0  0  0  0  0  0  0  0
    0.8426   44.8513   53.8320 C   0  0  0  0  0  0  0  0  0  0  0  0
    2.0682   44.3929   53.4394 N   0  0  0  0  0  0  0  0  0  0  0  0
    3.2446   45.0734   53.1472 C   0  0  0  0  0  0  0  0  0  0  0  0
    7.8475   45.7171   52.6413 C   0  0  0  0  0  0  0  0  0  0  0  0
    8.3337   46.9718   53.0433 C   0  0  0  0  0  0  0  0  0  0  0  0
    7.6908   47.8612   54.3819 Cl  0  0  0  0  0  0  0  0  0  0  0  0
    9.4332   47.5390   52.3915 C   0  0  0  0  0  0  0  0  0  0  0  0
   10.0568   46.8633   51.3473 C   0  0  0  0  0  0  0  0  0  0  0  0
    9.5943   45.6089   50.9524 C   0  0  0  0  0  0  0  0  0  0  0  0
    8.4925   45.0250   51.5896 C   0  0  0  0  0  0  0  0  0  0  0  0
    8.0014   43.7868   51.2706 O   0  0  0  0  0  0  0  0  0  0  0  0
    7.5548   43.5537   49.9356 C   0  0  0  0  0  0  0  0  0  0  0  0
    6.5869   42.4108   49.9788 C   0  0  0  0  0  0  0  0  0  0  0  0
    6.7076   41.2669   49.0052 C   0  0  0  0  0  0  0  0  0  0  0  0
    5.5566   42.2308   48.8947 C   0  0  0  0  0  0  0  0  0  0  0  0
    5.6577   45.2890   51.5193 H   0  0  0  0  0  0  0  0  0  0  0  0
    5.1025   42.3270   52.4019 H   0  0  0  0  0  0  0  0  0  0  0  0
    3.0213   41.1714   52.9206 H   0  0  0  0  0  0  0  0  0  0  0  0
    0.5844   45.9093   53.9866 H   0  0  0  0  0  0  0  0  0  0  0  0
    3.2854   46.1703   53.2202 H   0  0  0  0  0  0  0  0  0  0  0  0
    9.8070   48.5246   52.7059 H   0  0  0  0  0  0  0  0  0  0  0  0
   10.9154   47.3194   50.8328 H   0  0  0  0  0  0  0  0  0  0  0  0
   10.0987   45.0737   50.1344 H   0  0  0  0  0  0  0  0  0  0  0  0
    7.0573   44.4529   49.5434 H   0  0  0  0  0  0  0  0  0  0  0  0
    8.4045   43.3177   49.2780 H   0  0  0  0  0  0  0  0  0  0  0  0
    6.5538   42.5018   51.0745 H   0  0  0  0  0  0  0  0  0  0  0  0
    7.5041   41.2721   48.2466 H   0  0  0  0  0  0  0  0  0  0  0  0
    6.8014   40.1747   49.0963 H   0  0  0  0  0  0  0  0  0  0  0  0
    5.5120   42.9401   48.0551 H   0  0  0  0  0  0  0  0  0  0  0  0
    4.4610   42.1343   48.8715 H   0  0  0  0  0  0  0  0  0  0  0  0
  1  2  2  0
  2  3  1  0
  3  4  1  0
  4  5  1  0
  5  6  2  0
  6  7  1  0
  7  8  2  0
  8  9  1  0
  9 10  2  0
 10 11  1  0
 11 12  1  0
  2 13  1  0
 13 14  2  0
 14 15  1  0
 14 16  1  0
 16 17  2  0
 17 18  1  0
 18 19  2  0
 19 20  1  0
 20 21  1  0
 21 22  1  0
 22 23  1  0
 23 24  1  0
 12  4  2  0
 19 13  1  0
 24 22  1  0
 11  7  1  0
  3 25  1  0
  5 26  1  0
  6 27  1  0
 10 28  1  0
 12 29  1  0
 16 30  1  0
 17 31  1  0
 18 32  1  0
 21 33  1  0
 21 34  1  0
 22 35  1  0
 23 36  1  0
 23 37  1  0
 24 38  1  0
 24 39  1  0
M  END
>  <meeko>  (383) 
{"is_sidechain": false}

>  <CID>  (383) 
Z3590543759

>  <pose_index>  (383) 
9

>  <docking_score>  (383) 
-7.815

>  <rmsd_to_best_selected>  (383) 
1.2854697464010243

>  <MWT>  (383) 
342.78599999999983

>  <TPSA>  (383) 
68.52000000000001

>  <logP>  (383) 
3.4238000000000017

>  <HBD>  (383) 
1

>  <HBA>  (383) 
5

>  <SMILES>  (383) 
[H]c1c([H])c(Cl)c(C(=O)N([H])c2c([H])c([H])c3nnc([H])n3c2[H])c(OC([H])([H])C2([H])C([H])([H])C2([H])[H])c1[H]

$$$$
Z3950664500_pose1
     RDKit          3D

 46 49  0  0  0  0  0  0  0  0999 V2000
    1.6570   36.9420   46.7830 C   0  0  0  0  0  0  0  0  0  0  0  0
    2.7980   37.9420   46.7640 C   0  0  0  0  0  0  0  0  0  0  0  0
    2.7830   38.7340   47.9620 O   0  0  0  0  0  0  0  0  0  0  0  0
    3.3010   39.9880   47.8530 C   0  0  0  0  0  0  0  0  0  0  0  0
    3.0490   40.7560   46.9380 O   0  0  0  0  0  0  0  0  0  0  0  0
    4.1110   40.2000   48.9330 N   0  0  0  0  0  0  0  0  0  0  0  0
    4.8560   41.3450   49.2560 C   0  0  0  0  0  0  0  0  0  0  0  0
    5.8970   41.8410   48.4750 C   0  0  0  0  0  0  0  0  0  0  0  0
    6.5920   42.9940   48.8700 C   0  0  0  0  0  0  0  0  0  0  0  0
    6.2830   43.6610   50.0630 C   0  0  0  0  0  0  0  0  0  0  0  0
    6.9680   44.8540   50.3780 N   0  0  0  0  0  0  0  0  0  0  0  0
    6.7610   45.7370   51.4740 C   0  0  0  0  0  0  0  0  0  0  0  0
    5.5070   46.0660   51.8290 N   0  0  0  0  0  0  0  0  0  0  0  0
    5.3300   46.8860   52.8790 C   0  0  0  0  0  0  0  0  0  0  0  0
    3.9210   47.2530   53.2760 C   0  0  0  0  0  0  0  0  0  0  0  0
    2.8380   46.1990   53.3140 C   0  0  0  0  0  0  0  0  0  0  0  0
    2.8190   47.2450   52.2400 C   0  0  0  0  0  0  0  0  0  0  0  0
    6.3460   47.3860   53.6020 N   0  0  0  0  0  0  0  0  0  0  0  0
    7.5920   47.0690   53.2450 C   0  0  0  0  0  0  0  0  0  0  0  0
    8.6460   47.5940   53.9840 C   0  0  0  0  0  0  0  0  0  0  0  0
    9.9800   47.3210   53.6690 C   0  0  0  0  0  0  0  0  0  0  0  0
   10.2780   46.5080   52.5850 C   0  0  0  0  0  0  0  0  0  0  0  0
    9.2370   45.9690   51.8310 C   0  0  0  0  0  0  0  0  0  0  0  0
    7.8820   46.2370   52.1600 C   0  0  0  0  0  0  0  0  0  0  0  0
    5.2110   43.1760   50.8160 C   0  0  0  0  0  0  0  0  0  0  0  0
    4.5150   42.0240   50.4280 C   0  0  0  0  0  0  0  0  0  0  0  0
    1.3910   36.7089   47.8246 H   0  0  0  0  0  0  0  0  0  0  0  0
    0.7844   37.3715   46.2691 H   0  0  0  0  0  0  0  0  0  0  0  0
    1.9684   36.0206   46.2691 H   0  0  0  0  0  0  0  0  0  0  0  0
    3.7538   37.4016   46.6976 H   0  0  0  0  0  0  0  0  0  0  0  0
    2.6802   38.6047   45.8940 H   0  0  0  0  0  0  0  0  0  0  0  0
    4.1540   39.4130   49.5630 H   0  0  0  0  0  0  0  0  0  0  0  0
    6.1757   41.3262   47.5437 H   0  0  0  0  0  0  0  0  0  0  0  0
    7.3971   43.3829   48.2292 H   0  0  0  0  0  0  0  0  0  0  0  0
    7.9660   44.7570   50.2240 H   0  0  0  0  0  0  0  0  0  0  0  0
    4.3180   47.9872   53.9925 H   0  0  0  0  0  0  0  0  0  0  0  0
    3.0778   45.1558   53.0604 H   0  0  0  0  0  0  0  0  0  0  0  0
    2.1199   45.8511   54.0712 H   0  0  0  0  0  0  0  0  0  0  0  0
    3.0451   46.9683   51.1997 H   0  0  0  0  0  0  0  0  0  0  0  0
    2.0816   47.9801   51.8852 H   0  0  0  0  0  0  0  0  0  0  0  0
    8.4232   48.2441   54.8429 H   0  0  0  0  0  0  0  0  0  0  0  0
   10.7901   47.7488   54.2779 H   0  0  0  0  0  0  0  0  0  0  0  0
   11.3242   46.2912   52.3235 H   0  0  0  0  0  0  0  0  0  0  0  0
    9.4685   45.3267   50.9686 H   0  0  0  0  0  0  0  0  0  0  0  0
    4.9081   43.7082   51.7298 H   0  0  0  0  0  0  0  0  0  0  0  0
    3.6908   41.6500   51.0532 H   0  0  0  0  0  0  0  0  0  0  0  0
  1  2  1  0
  2  3  1  0
  3  4  1  0
  4  5  2  0
  4  6  1  0
  6  7  1  0
  7  8  2  0
  8  9  1  0
  9 10  2  0
 10 11  1  0
 11 12  1  0
 12 13  2  0
 13 14  1  0
 14 15  1  0
 15 16  1  0
 16 17  1  0
 14 18  2  0
 18 19  1  0
 19 20  2  0
 20 21  1  0
 21 22  2  0
 22 23  1  0
 23 24  2  0
 10 25  1  0
 25 26  2  0
 26  7  1  0
 24 12  1  0
 17 15  1  0
 24 19  1  0
  1 27  1  0
  1 28  1  0
  1 29  1  0
  2 30  1  0
  2 31  1  0
  6 32  1  0
  8 33  1  0
  9 34  1  0
 11 35  1  0
 15 36  1  0
 16 37  1  0
 16 38  1  0
 17 39  1  0
 17 40  1  0
 20 41  1  0
 21 42  1  0
 22 43  1  0
 23 44  1  0
 25 45  1  0
 26 46  1  0
M  END
>  <meeko>  (384) 
{"is_sidechain": false}

>  <CID>  (384) 
Z3950664500

>  <pose_index>  (384) 
1

>  <docking_score>  (384) 
-9.497

>  <rmsd_to_best_selected>  (384) 
0.0

>  <MWT>  (384) 
348.4059999999998

>  <TPSA>  (384) 
76.14

>  <logP>  (384) 
4.819200000000003

>  <HBD>  (384) 
2

>  <HBA>  (384) 
5

>  <SMILES>  (384) 
[H]c1c([H])c(N([H])c2nc(C3([H])C([H])([H])C3([H])[H])nc3c([H])c([H])c([H])c([H])c23)c([H])c([H])c1N([H])C(=O)OC([H])([H])C([H])([H])[H]

$$$$
Z3950664500_pose2
     RDKit          3D

 46 49  0  0  0  0  0  0  0  0999 V2000
    1.6895   37.9098   46.5395 C   0  0  0  0  0  0  0  0  0  0  0  0
    2.8368   38.4574   47.3683 C   0  0  0  0  0  0  0  0  0  0  0  0
    3.8036   39.0919   46.5168 O   0  0  0  0  0  0  0  0  0  0  0  0
    4.8262   39.7310   47.1498 C   0  0  0  0  0  0  0  0  0  0  0  0
    5.9913   39.6865   46.7876 O   0  0  0  0  0  0  0  0  0  0  0  0
    4.3005   40.4063   48.2149 N   0  0  0  0  0  0  0  0  0  0  0  0
    4.9645   41.2085   49.1558 C   0  0  0  0  0  0  0  0  0  0  0  0
    5.7504   42.3099   48.8221 C   0  0  0  0  0  0  0  0  0  0  0  0
    6.3807   43.0598   49.8255 C   0  0  0  0  0  0  0  0  0  0  0  0
    6.2646   42.7156   51.1788 C   0  0  0  0  0  0  0  0  0  0  0  0
    6.8635   43.5444   52.1518 N   0  0  0  0  0  0  0  0  0  0  0  0
    6.6255   44.9218   52.4158 C   0  0  0  0  0  0  0  0  0  0  0  0
    5.4076   45.3145   52.8295 N   0  0  0  0  0  0  0  0  0  0  0  0
    5.2065   46.6163   53.0934 C   0  0  0  0  0  0  0  0  0  0  0  0
    3.8399   47.0540   53.5575 C   0  0  0  0  0  0  0  0  0  0  0  0
    2.5974   46.5698   52.8427 C   0  0  0  0  0  0  0  0  0  0  0  0
    3.0217   48.0016   52.7091 C   0  0  0  0  0  0  0  0  0  0  0  0
    6.1676   47.5483   52.9773 N   0  0  0  0  0  0  0  0  0  0  0  0
    7.3745   47.1621   52.5572 C   0  0  0  0  0  0  0  0  0  0  0  0
    8.3680   48.1258   52.4240 C   0  0  0  0  0  0  0  0  0  0  0  0
    9.6542   47.8077   51.9793 C   0  0  0  0  0  0  0  0  0  0  0  0
    9.9619   46.4955   51.6509 C   0  0  0  0  0  0  0  0  0  0  0  0
    8.9823   45.5129   51.7786 C   0  0  0  0  0  0  0  0  0  0  0  0
    7.6803   45.8359   52.2431 C   0  0  0  0  0  0  0  0  0  0  0  0
    5.4414   41.6330   51.5019 C   0  0  0  0  0  0  0  0  0  0  0  0
    4.8110   40.8791   50.5043 C   0  0  0  0  0  0  0  0  0  0  0  0
    2.0186   37.7808   45.4978 H   0  0  0  0  0  0  0  0  0  0  0  0
    1.3736   36.9382   46.9472 H   0  0  0  0  0  0  0  0  0  0  0  0
    0.8447   38.6134   46.5726 H   0  0  0  0  0  0  0  0  0  0  0  0
    2.4472   39.1931   48.0873 H   0  0  0  0  0  0  0  0  0  0  0  0
    3.3203   37.6280   47.9053 H   0  0  0  0  0  0  0  0  0  0  0  0
    3.3016   40.2958   48.3071 H   0  0  0  0  0  0  0  0  0  0  0  0
    5.8770   42.5924   47.7666 H   0  0  0  0  0  0  0  0  0  0  0  0
    6.9799   43.9382   49.5438 H   0  0  0  0  0  0  0  0  0  0  0  0
    6.9699   43.0584   53.0348 H   0  0  0  0  0  0  0  0  0  0  0  0
    4.1941   47.0413   54.5988 H   0  0  0  0  0  0  0  0  0  0  0  0
    2.6881   45.8877   51.9845 H   0  0  0  0  0  0  0  0  0  0  0  0
    1.6732   46.0597   53.1518 H   0  0  0  0  0  0  0  0  0  0  0  0
    3.4231   48.3685   51.7529 H   0  0  0  0  0  0  0  0  0  0  0  0
    2.5365   48.9739   52.8799 H   0  0  0  0  0  0  0  0  0  0  0  0
    8.1344   49.1707   52.6764 H   0  0  0  0  0  0  0  0  0  0  0  0
   10.4185   48.5937   51.8902 H   0  0  0  0  0  0  0  0  0  0  0  0
   10.9686   46.2336   51.2934 H   0  0  0  0  0  0  0  0  0  0  0  0
    9.2214   44.4719   51.5158 H   0  0  0  0  0  0  0  0  0  0  0  0
    5.2862   41.3687   52.5583 H   0  0  0  0  0  0  0  0  0  0  0  0
    4.1877   40.0176   50.7860 H   0  0  0  0  0  0  0  0  0  0  0  0
  1  2  1  0
  2  3  1  0
  3  4  1  0
  4  5  2  0
  4  6  1  0
  6  7  1  0
  7  8  2  0
  8  9  1  0
  9 10  2  0
 10 11  1  0
 11 12  1  0
 12 13  2  0
 13 14  1  0
 14 15  1  0
 15 16  1  0
 16 17  1  0
 14 18  2  0
 18 19  1  0
 19 20  2  0
 20 21  1  0
 21 22  2  0
 22 23  1  0
 23 24  2  0
 10 25  1  0
 25 26  2  0
 26  7  1  0
 24 12  1  0
 17 15  1  0
 24 19  1  0
  1 27  1  0
  1 28  1  0
  1 29  1  0
  2 30  1  0
  2 31  1  0
  6 32  1  0
  8 33  1  0
  9 34  1  0
 11 35  1  0
 15 36  1  0
 16 37  1  0
 16 38  1  0
 17 39  1  0
 17 40  1  0
 20 41  1  0
 21 42  1  0
 22 43  1  0
 23 44  1  0
 25 45  1  0
 26 46  1  0
M  END
>  <meeko>  (385) 
{"is_sidechain": false}

>  <CID>  (385) 
Z3950664500

>  <pose_index>  (385) 
2

>  <docking_score>  (385) 
-9.311

>  <rmsd_to_best_selected>  (385) 
1.535095850563162

>  <MWT>  (385) 
348.4059999999998

>  <TPSA>  (385) 
76.14

>  <logP>  (385) 
4.819200000000003

>  <HBD>  (385) 
2

>  <HBA>  (385) 
5

>  <SMILES>  (385) 
[H]c1c([H])c(N([H])c2nc(C3([H])C([H])([H])C3([H])[H])nc3c([H])c([H])c([H])c([H])c23)c([H])c([H])c1N([H])C(=O)OC([H])([H])C([H])([H])[H]

$$$$
Z3950664500_pose3
     RDKit          3D

 46 49  0  0  0  0  0  0  0  0999 V2000
    2.8514   37.8056   45.8533 C   0  0  0  0  0  0  0  0  0  0  0  0
    3.0788   38.2633   47.2825 C   0  0  0  0  0  0  0  0  0  0  0  0
    2.0771   39.2197   47.6621 O   0  0  0  0  0  0  0  0  0  0  0  0
    2.5359   40.3674   48.2319 C   0  0  0  0  0  0  0  0  0  0  0  0
    1.9281   41.4270   48.2242 O   0  0  0  0  0  0  0  0  0  0  0  0
    3.7515   40.0972   48.7943 N   0  0  0  0  0  0  0  0  0  0  0  0
    4.6023   40.9654   49.4955 C   0  0  0  0  0  0  0  0  0  0  0  0
    5.5417   41.7952   48.8865 C   0  0  0  0  0  0  0  0  0  0  0  0
    6.3542   42.6337   49.6627 C   0  0  0  0  0  0  0  0  0  0  0  0
    6.2696   42.6462   51.0608 C   0  0  0  0  0  0  0  0  0  0  0  0
    7.0645   43.5587   51.7876 N   0  0  0  0  0  0  0  0  0  0  0  0
    6.7614   44.8943   52.1705 C   0  0  0  0  0  0  0  0  0  0  0  0
    5.5233   45.1944   52.6003 N   0  0  0  0  0  0  0  0  0  0  0  0
    5.2607   46.4573   52.9753 C   0  0  0  0  0  0  0  0  0  0  0  0
    3.8711   46.7900   53.4578 C   0  0  0  0  0  0  0  0  0  0  0  0
    2.7238   46.8904   52.4774 C   0  0  0  0  0  0  0  0  0  0  0  0
    3.2577   48.1323   53.1254 C   0  0  0  0  0  0  0  0  0  0  0  0
    6.1794   47.4372   52.9562 N   0  0  0  0  0  0  0  0  0  0  0  0
    7.4066   47.1446   52.5209 C   0  0  0  0  0  0  0  0  0  0  0  0
    8.3570   48.1591   52.4868 C   0  0  0  0  0  0  0  0  0  0  0  0
    9.6607   47.9386   52.0338 C   0  0  0  0  0  0  0  0  0  0  0  0
   10.0302   46.6757   51.5937 C   0  0  0  0  0  0  0  0  0  0  0  0
    9.0956   45.6439   51.6203 C   0  0  0  0  0  0  0  0  0  0  0  0
    7.7754   45.8654   52.0937 C   0  0  0  0  0  0  0  0  0  0  0  0
    5.2981   41.8371   51.6563 C   0  0  0  0  0  0  0  0  0  0  0  0
    4.4845   40.9970   50.8871 C   0  0  0  0  0  0  0  0  0  0  0  0
    3.8150   37.7622   45.3245 H   0  0  0  0  0  0  0  0  0  0  0  0
    2.3899   36.8071   45.8570 H   0  0  0  0  0  0  0  0  0  0  0  0
    2.1846   38.5159   45.3425 H   0  0  0  0  0  0  0  0  0  0  0  0
    3.0251   37.3945   47.9552 H   0  0  0  0  0  0  0  0  0  0  0  0
    4.0703   38.7339   47.3554 H   0  0  0  0  0  0  0  0  0  0  0  0
    4.0443   39.1387   48.6763 H   0  0  0  0  0  0  0  0  0  0  0  0
    5.6463   41.7923   47.7914 H   0  0  0  0  0  0  0  0  0  0  0  0
    7.0747   43.2972   49.1621 H   0  0  0  0  0  0  0  0  0  0  0  0
    7.5394   43.0996   52.5589 H   0  0  0  0  0  0  0  0  0  0  0  0
    4.0594   46.2209   54.3800 H   0  0  0  0  0  0  0  0  0  0  0  0
    2.8994   46.7109   51.4064 H   0  0  0  0  0  0  0  0  0  0  0  0
    1.7312   46.4239   52.3940 H   0  0  0  0  0  0  0  0  0  0  0  0
    3.8244   48.8627   52.5294 H   0  0  0  0  0  0  0  0  0  0  0  0
    2.8178   48.9516   53.7131 H   0  0  0  0  0  0  0  0  0  0  0  0
    8.0740   49.1662   52.8269 H   0  0  0  0  0  0  0  0  0  0  0  0
   10.3900   48.7620   52.0262 H   0  0  0  0  0  0  0  0  0  0  0  0
   11.0510   46.4914   51.2276 H   0  0  0  0  0  0  0  0  0  0  0  0
    9.3844   44.6422   51.2692 H   0  0  0  0  0  0  0  0  0  0  0  0
    5.1705   41.8609   52.7487 H   0  0  0  0  0  0  0  0  0  0  0  0
    3.7434   40.3539   51.3844 H   0  0  0  0  0  0  0  0  0  0  0  0
  1  2  1  0
  2  3  1  0
  3  4  1  0
  4  5  2  0
  4  6  1  0
  6  7  1  0
  7  8  2  0
  8  9  1  0
  9 10  2  0
 10 11  1  0
 11 12  1  0
 12 13  2  0
 13 14  1  0
 14 15  1  0
 15 16  1  0
 16 17  1  0
 14 18  2  0
 18 19  1  0
 19 20  2  0
 20 21  1  0
 21 22  2  0
 22 23  1  0
 23 24  2  0
 10 25  1  0
 25 26  2  0
 26  7  1  0
 24 12  1  0
 17 15  1  0
 24 19  1  0
  1 27  1  0
  1 28  1  0
  1 29  1  0
  2 30  1  0
  2 31  1  0
  6 32  1  0
  8 33  1  0
  9 34  1  0
 11 35  1  0
 15 36  1  0
 16 37  1  0
 16 38  1  0
 17 39  1  0
 17 40  1  0
 20 41  1  0
 21 42  1  0
 22 43  1  0
 23 44  1  0
 25 45  1  0
 26 46  1  0
M  END
>  <meeko>  (386) 
{"is_sidechain": false}

>  <CID>  (386) 
Z3950664500

>  <pose_index>  (386) 
3

>  <docking_score>  (386) 
-9.238

>  <rmsd_to_best_selected>  (386) 
1.53984575444497

>  <MWT>  (386) 
348.4059999999998

>  <TPSA>  (386) 
76.14

>  <logP>  (386) 
4.819200000000003

>  <HBD>  (386) 
2

>  <HBA>  (386) 
5

>  <SMILES>  (386) 
[H]c1c([H])c(N([H])c2nc(C3([H])C([H])([H])C3([H])[H])nc3c([H])c([H])c([H])c([H])c23)c([H])c([H])c1N([H])C(=O)OC([H])([H])C([H])([H])[H]

$$$$
Z3950664500_pose4
     RDKit          3D

 46 49  0  0  0  0  0  0  0  0999 V2000
    2.9227   38.0586   45.7814 C   0  0  0  0  0  0  0  0  0  0  0  0
    3.1533   38.4467   47.2306 C   0  0  0  0  0  0  0  0  0  0  0  0
    2.0798   39.2762   47.6990 O   0  0  0  0  0  0  0  0  0  0  0  0
    2.4319   40.2873   48.5396 C   0  0  0  0  0  0  0  0  0  0  0  0
    1.6385   41.0710   49.0379 O   0  0  0  0  0  0  0  0  0  0  0  0
    3.7861   40.2378   48.7079 N   0  0  0  0  0  0  0  0  0  0  0  0
    4.6015   41.0727   49.4880 C   0  0  0  0  0  0  0  0  0  0  0  0
    5.5161   41.9819   48.9591 C   0  0  0  0  0  0  0  0  0  0  0  0
    6.2936   42.7799   49.8101 C   0  0  0  0  0  0  0  0  0  0  0  0
    6.1977   42.6736   51.2040 C   0  0  0  0  0  0  0  0  0  0  0  0
    6.9543   43.5480   52.0117 N   0  0  0  0  0  0  0  0  0  0  0  0
    6.7264   44.9249   52.2911 C   0  0  0  0  0  0  0  0  0  0  0  0
    5.5078   45.3237   52.6965 N   0  0  0  0  0  0  0  0  0  0  0  0
    5.3159   46.6231   52.9735 C   0  0  0  0  0  0  0  0  0  0  0  0
    3.9482   47.0675   53.4298 C   0  0  0  0  0  0  0  0  0  0  0  0
    2.7038   46.4791   52.8033 C   0  0  0  0  0  0  0  0  0  0  0  0
    3.0806   47.8996   52.5122 C   0  0  0  0  0  0  0  0  0  0  0  0
    6.2858   47.5476   52.8784 N   0  0  0  0  0  0  0  0  0  0  0  0
    7.4936   47.1554   52.4656 C   0  0  0  0  0  0  0  0  0  0  0  0
    8.4971   48.1121   52.3537 C   0  0  0  0  0  0  0  0  0  0  0  0
    9.7850   47.7867   51.9186 C   0  0  0  0  0  0  0  0  0  0  0  0
   10.0837   46.4762   51.5775 C   0  0  0  0  0  0  0  0  0  0  0  0
    9.0950   45.5014   51.6831 C   0  0  0  0  0  0  0  0  0  0  0  0
    7.7912   45.8303   52.1387 C   0  0  0  0  0  0  0  0  0  0  0  0
    5.2501   41.7854   51.7198 C   0  0  0  0  0  0  0  0  0  0  0  0
    4.4712   40.9844   50.8760 C   0  0  0  0  0  0  0  0  0  0  0  0
    3.7989   38.3448   45.1812 H   0  0  0  0  0  0  0  0  0  0  0  0
    2.7705   36.9713   45.7127 H   0  0  0  0  0  0  0  0  0  0  0  0
    2.0314   38.5784   45.4000 H   0  0  0  0  0  0  0  0  0  0  0  0
    3.2046   37.5367   47.8466 H   0  0  0  0  0  0  0  0  0  0  0  0
    4.0978   39.0055   47.3064 H   0  0  0  0  0  0  0  0  0  0  0  0
    4.2275   39.4895   48.1943 H   0  0  0  0  0  0  0  0  0  0  0  0
    5.6283   42.0739   47.8687 H   0  0  0  0  0  0  0  0  0  0  0  0
    6.9951   43.5060   49.3735 H   0  0  0  0  0  0  0  0  0  0  0  0
    7.2592   43.0902   52.8652 H   0  0  0  0  0  0  0  0  0  0  0  0
    4.3284   47.1709   54.4568 H   0  0  0  0  0  0  0  0  0  0  0  0
    2.7934   45.7150   52.0171 H   0  0  0  0  0  0  0  0  0  0  0  0
    1.8033   45.9785   53.1888 H   0  0  0  0  0  0  0  0  0  0  0  0
    3.4465   48.1769   51.5126 H   0  0  0  0  0  0  0  0  0  0  0  0
    2.5705   48.8706   52.5961 H   0  0  0  0  0  0  0  0  0  0  0  0
    8.2704   49.1562   52.6155 H   0  0  0  0  0  0  0  0  0  0  0  0
   10.5578   48.5662   51.8473 H   0  0  0  0  0  0  0  0  0  0  0  0
   11.0916   46.2093   51.2269 H   0  0  0  0  0  0  0  0  0  0  0  0
    9.3274   44.4616   51.4096 H   0  0  0  0  0  0  0  0  0  0  0  0
    5.1135   41.7142   52.8090 H   0  0  0  0  0  0  0  0  0  0  0  0
    3.7489   40.2779   51.3108 H   0  0  0  0  0  0  0  0  0  0  0  0
  1  2  1  0
  2  3  1  0
  3  4  1  0
  4  5  2  0
  4  6  1  0
  6  7  1  0
  7  8  2  0
  8  9  1  0
  9 10  2  0
 10 11  1  0
 11 12  1  0
 12 13  2  0
 13 14  1  0
 14 15  1  0
 15 16  1  0
 16 17  1  0
 14 18  2  0
 18 19  1  0
 19 20  2  0
 20 21  1  0
 21 22  2  0
 22 23  1  0
 23 24  2  0
 10 25  1  0
 25 26  2  0
 26  7  1  0
 24 12  1  0
 17 15  1  0
 24 19  1  0
  1 27  1  0
  1 28  1  0
  1 29  1  0
  2 30  1  0
  2 31  1  0
  6 32  1  0
  8 33  1  0
  9 34  1  0
 11 35  1  0
 15 36  1  0
 16 37  1  0
 16 38  1  0
 17 39  1  0
 17 40  1  0
 20 41  1  0
 21 42  1  0
 22 43  1  0
 23 44  1  0
 25 45  1  0
 26 46  1  0
M  END
>  <meeko>  (387) 
{"is_sidechain": false}

>  <CID>  (387) 
Z3950664500

>  <pose_index>  (387) 
4

>  <docking_score>  (387) 
-9.006

>  <rmsd_to_best_selected>  (387) 
1.5248662629064385

>  <MWT>  (387) 
348.4059999999998

>  <TPSA>  (387) 
76.14

>  <logP>  (387) 
4.819200000000003

>  <HBD>  (387) 
2

>  <HBA>  (387) 
5

>  <SMILES>  (387) 
[H]c1c([H])c(N([H])c2nc(C3([H])C([H])([H])C3([H])[H])nc3c([H])c([H])c([H])c([H])c23)c([H])c([H])c1N([H])C(=O)OC([H])([H])C([H])([H])[H]

$$$$
Z3950664500_pose5
     RDKit          3D

 46 49  0  0  0  0  0  0  0  0999 V2000
    1.1219   38.5408   47.7262 C   0  0  0  0  0  0  0  0  0  0  0  0
    2.3071   39.3062   47.1670 C   0  0  0  0  0  0  0  0  0  0  0  0
    3.4840   38.4844   47.1910 O   0  0  0  0  0  0  0  0  0  0  0  0
    4.6027   39.0610   47.7108 C   0  0  0  0  0  0  0  0  0  0  0  0
    5.7335   38.6305   47.5479 O   0  0  0  0  0  0  0  0  0  0  0  0
    4.2155   40.1691   48.4081 N   0  0  0  0  0  0  0  0  0  0  0  0
    5.0158   41.0837   49.1123 C   0  0  0  0  0  0  0  0  0  0  0  0
    5.7625   42.0907   48.5060 C   0  0  0  0  0  0  0  0  0  0  0  0
    6.5369   42.9636   49.2839 C   0  0  0  0  0  0  0  0  0  0  0  0
    6.6051   42.8362   50.6777 C   0  0  0  0  0  0  0  0  0  0  0  0
    7.3449   43.7836   51.4170 N   0  0  0  0  0  0  0  0  0  0  0  0
    6.9187   45.0353   51.9418 C   0  0  0  0  0  0  0  0  0  0  0  0
    5.6025   45.2895   52.0557 N   0  0  0  0  0  0  0  0  0  0  0  0
    5.2183   46.4691   52.5708 C   0  0  0  0  0  0  0  0  0  0  0  0
    3.7417   46.7513   52.6995 C   0  0  0  0  0  0  0  0  0  0  0  0
    2.7270   45.8034   52.1007 C   0  0  0  0  0  0  0  0  0  0  0  0
    2.9409   47.1515   51.4807 C   0  0  0  0  0  0  0  0  0  0  0  0
    6.0846   47.4067   52.9907 N   0  0  0  0  0  0  0  0  0  0  0  0
    7.3900   47.1614   52.8685 C   0  0  0  0  0  0  0  0  0  0  0  0
    8.2893   48.1343   53.2903 C   0  0  0  0  0  0  0  0  0  0  0  0
    9.6723   47.9601   53.1862 C   0  0  0  0  0  0  0  0  0  0  0  0
   10.1788   46.7897   52.6410 C   0  0  0  0  0  0  0  0  0  0  0  0
    9.2964   45.7997   52.2126 C   0  0  0  0  0  0  0  0  0  0  0  0
    7.8913   45.9722   52.3320 C   0  0  0  0  0  0  0  0  0  0  0  0
    5.8206   41.8466   51.2758 C   0  0  0  0  0  0  0  0  0  0  0  0
    5.0466   40.9711   50.5038 C   0  0  0  0  0  0  0  0  0  0  0  0
    1.4809   37.7579   48.4105 H   0  0  0  0  0  0  0  0  0  0  0  0
    0.4638   39.2322   48.2730 H   0  0  0  0  0  0  0  0  0  0  0  0
    0.5620   38.0775   46.9005 H   0  0  0  0  0  0  0  0  0  0  0  0
    2.0917   39.6023   46.1297 H   0  0  0  0  0  0  0  0  0  0  0  0
    2.4808   40.2000   47.7843 H   0  0  0  0  0  0  0  0  0  0  0  0
    3.2184   40.3258   48.3926 H   0  0  0  0  0  0  0  0  0  0  0  0
    5.7449   42.2020   47.4118 H   0  0  0  0  0  0  0  0  0  0  0  0
    7.1033   43.7661   48.7889 H   0  0  0  0  0  0  0  0  0  0  0  0
    7.9415   43.3310   52.1020 H   0  0  0  0  0  0  0  0  0  0  0  0
    3.9139   47.1775   53.6988 H   0  0  0  0  0  0  0  0  0  0  0  0
    3.0645   44.8977   51.5756 H   0  0  0  0  0  0  0  0  0  0  0  0
    1.8542   45.2561   52.4862 H   0  0  0  0  0  0  0  0  0  0  0  0
    3.4351   47.2335   50.5014 H   0  0  0  0  0  0  0  0  0  0  0  0
    2.2895   48.0001   51.2242 H   0  0  0  0  0  0  0  0  0  0  0  0
    7.9005   49.0697   53.7190 H   0  0  0  0  0  0  0  0  0  0  0  0
   10.3561   48.7480   53.5351 H   0  0  0  0  0  0  0  0  0  0  0  0
   11.2652   46.6444   52.5478 H   0  0  0  0  0  0  0  0  0  0  0  0
    9.6935   44.8716   51.7758 H   0  0  0  0  0  0  0  0  0  0  0  0
    5.8107   41.7536   52.3718 H   0  0  0  0  0  0  0  0  0  0  0  0
    4.4564   40.1860   50.9991 H   0  0  0  0  0  0  0  0  0  0  0  0
  1  2  1  0
  2  3  1  0
  3  4  1  0
  4  5  2  0
  4  6  1  0
  6  7  1  0
  7  8  2  0
  8  9  1  0
  9 10  2  0
 10 11  1  0
 11 12  1  0
 12 13  2  0
 13 14  1  0
 14 15  1  0
 15 16  1  0
 16 17  1  0
 14 18  2  0
 18 19  1  0
 19 20  2  0
 20 21  1  0
 21 22  2  0
 22 23  1  0
 23 24  2  0
 10 25  1  0
 25 26  2  0
 26  7  1  0
 24 12  1  0
 17 15  1  0
 24 19  1  0
  1 27  1  0
  1 28  1  0
  1 29  1  0
  2 30  1  0
  2 31  1  0
  6 32  1  0
  8 33  1  0
  9 34  1  0
 11 35  1  0
 15 36  1  0
 16 37  1  0
 16 38  1  0
 17 39  1  0
 17 40  1  0
 20 41  1  0
 21 42  1  0
 22 43  1  0
 23 44  1  0
 25 45  1  0
 26 46  1  0
M  END
>  <meeko>  (388) 
{"is_sidechain": false}

>  <CID>  (388) 
Z3950664500

>  <pose_index>  (388) 
5

>  <docking_score>  (388) 
-8.905

>  <rmsd_to_best_selected>  (388) 
1.4147008245505097

>  <MWT>  (388) 
348.4059999999998

>  <TPSA>  (388) 
76.14

>  <logP>  (388) 
4.819200000000003

>  <HBD>  (388) 
2

>  <HBA>  (388) 
5

>  <SMILES>  (388) 
[H]c1c([H])c(N([H])c2nc(C3([H])C([H])([H])C3([H])[H])nc3c([H])c([H])c([H])c([H])c23)c([H])c([H])c1N([H])C(=O)OC([H])([H])C([H])([H])[H]

$$$$
Z3950664500_pose8
     RDKit          3D

 46 49  0  0  0  0  0  0  0  0999 V2000
    2.6177   38.1647   46.1310 C   0  0  0  0  0  0  0  0  0  0  0  0
    3.9145   37.4138   46.3726 C   0  0  0  0  0  0  0  0  0  0  0  0
    4.9724   38.3369   46.6743 O   0  0  0  0  0  0  0  0  0  0  0  0
    5.0037   38.8091   47.9514 C   0  0  0  0  0  0  0  0  0  0  0  0
    5.1147   38.1032   48.9403 O   0  0  0  0  0  0  0  0  0  0  0  0
    4.9008   40.1701   47.8949 N   0  0  0  0  0  0  0  0  0  0  0  0
    4.8919   41.0912   48.9541 C   0  0  0  0  0  0  0  0  0  0  0  0
    3.7338   41.6459   49.4941 C   0  0  0  0  0  0  0  0  0  0  0  0
    3.8138   42.5604   50.5539 C   0  0  0  0  0  0  0  0  0  0  0  0
    5.0474   42.9638   51.0810 C   0  0  0  0  0  0  0  0  0  0  0  0
    5.0668   43.8338   52.1917 N   0  0  0  0  0  0  0  0  0  0  0  0
    5.5876   45.1557   52.2778 C   0  0  0  0  0  0  0  0  0  0  0  0
    4.8474   46.1877   51.8356 N   0  0  0  0  0  0  0  0  0  0  0  0
    5.3469   47.4295   51.9427 C   0  0  0  0  0  0  0  0  0  0  0  0
    4.5144   48.5855   51.4461 C   0  0  0  0  0  0  0  0  0  0  0  0
    4.5198   49.9058   52.1833 C   0  0  0  0  0  0  0  0  0  0  0  0
    3.3012   49.0342   52.2293 C   0  0  0  0  0  0  0  0  0  0  0  0
    6.5473   47.6965   52.4846 N   0  0  0  0  0  0  0  0  0  0  0  0
    7.2873   46.6734   52.9149 C   0  0  0  0  0  0  0  0  0  0  0  0
    8.5359   46.9440   53.4643 C   0  0  0  0  0  0  0  0  0  0  0  0
    9.3779   45.9295   53.9291 C   0  0  0  0  0  0  0  0  0  0  0  0
    8.9717   44.6058   53.8388 C   0  0  0  0  0  0  0  0  0  0  0  0
    7.7246   44.3105   53.2933 C   0  0  0  0  0  0  0  0  0  0  0  0
    6.8646   45.3432   52.8343 C   0  0  0  0  0  0  0  0  0  0  0  0
    6.1992   42.3710   50.5561 C   0  0  0  0  0  0  0  0  0  0  0  0
    6.1259   41.4588   49.4961 C   0  0  0  0  0  0  0  0  0  0  0  0
    1.7656   37.5095   46.3648 H   0  0  0  0  0  0  0  0  0  0  0  0
    2.5837   39.0549   46.7763 H   0  0  0  0  0  0  0  0  0  0  0  0
    2.5640   38.4738   45.0767 H   0  0  0  0  0  0  0  0  0  0  0  0
    3.7824   36.7232   47.2185 H   0  0  0  0  0  0  0  0  0  0  0  0
    4.1775   36.8500   45.4655 H   0  0  0  0  0  0  0  0  0  0  0  0
    4.8271   40.5286   46.9540 H   0  0  0  0  0  0  0  0  0  0  0  0
    2.7513   41.3650   49.0870 H   0  0  0  0  0  0  0  0  0  0  0  0
    2.8868   42.9703   50.9812 H   0  0  0  0  0  0  0  0  0  0  0  0
    4.1925   43.7956   52.7045 H   0  0  0  0  0  0  0  0  0  0  0  0
    4.7063   48.2718   50.4094 H   0  0  0  0  0  0  0  0  0  0  0  0
    5.1404   50.0300   53.0829 H   0  0  0  0  0  0  0  0  0  0  0  0
    4.7163   50.9509   51.9020 H   0  0  0  0  0  0  0  0  0  0  0  0
    3.0289   48.5198   53.1626 H   0  0  0  0  0  0  0  0  0  0  0  0
    2.2358   49.1768   51.9956 H   0  0  0  0  0  0  0  0  0  0  0  0
    8.8714   47.9892   53.5355 H   0  0  0  0  0  0  0  0  0  0  0  0
   10.3570   46.1791   54.3639 H   0  0  0  0  0  0  0  0  0  0  0  0
    9.6280   43.7978   54.1945 H   0  0  0  0  0  0  0  0  0  0  0  0
    7.4011   43.2620   53.2169 H   0  0  0  0  0  0  0  0  0  0  0  0
    7.1805   42.6255   50.9831 H   0  0  0  0  0  0  0  0  0  0  0  0
    7.0504   41.0268   49.0856 H   0  0  0  0  0  0  0  0  0  0  0  0
  1  2  1  0
  2  3  1  0
  3  4  1  0
  4  5  2  0
  4  6  1  0
  6  7  1  0
  7  8  2  0
  8  9  1  0
  9 10  2  0
 10 11  1  0
 11 12  1  0
 12 13  2  0
 13 14  1  0
 14 15  1  0
 15 16  1  0
 16 17  1  0
 14 18  2  0
 18 19  1  0
 19 20  2  0
 20 21  1  0
 21 22  2  0
 22 23  1  0
 23 24  2  0
 10 25  1  0
 25 26  2  0
 26  7  1  0
 24 12  1  0
 17 15  1  0
 24 19  1  0
  1 27  1  0
  1 28  1  0
  1 29  1  0
  2 30  1  0
  2 31  1  0
  6 32  1  0
  8 33  1  0
  9 34  1  0
 11 35  1  0
 15 36  1  0
 16 37  1  0
 16 38  1  0
 17 39  1  0
 17 40  1  0
 20 41  1  0
 21 42  1  0
 22 43  1  0
 23 44  1  0
 25 45  1  0
 26 46  1  0
M  END
>  <meeko>  (389) 
{"is_sidechain": false}

>  <CID>  (389) 
Z3950664500

>  <pose_index>  (389) 
8

>  <docking_score>  (389) 
-8.592

>  <rmsd_to_best_selected>  (389) 
1.9331081466223274

>  <MWT>  (389) 
348.4059999999998

>  <TPSA>  (389) 
76.14

>  <logP>  (389) 
4.819200000000003

>  <HBD>  (389) 
2

>  <HBA>  (389) 
5

>  <SMILES>  (389) 
[H]c1c([H])c(N([H])c2nc(C3([H])C([H])([H])C3([H])[H])nc3c([H])c([H])c([H])c([H])c23)c([H])c([H])c1N([H])C(=O)OC([H])([H])C([H])([H])[H]

$$$$
Z4122330572_pose3
     RDKit          3D

 52 55  0  0  0  0  0  0  0  0999 V2000
    8.7133   47.8545   53.6265 C   0  0  0  0  0  0  0  0  0  0  0  0
    9.0972   46.8543   52.7666 C   0  0  0  0  0  0  0  0  0  0  0  0
    8.1916   45.8345   52.5818 C   0  0  0  0  0  0  0  0  0  0  0  0
    8.5539   44.7447   51.7584 N   0  0  0  0  0  0  0  0  0  0  0  0
    7.9086   44.7288   50.4419 C   0  0  0  0  0  0  0  0  0  0  0  0
    7.2093   43.3733   50.2006 C   0  0  0  0  0  0  0  0  0  0  0  0
    7.2637   42.9087   48.7576 C   0  0  0  0  0  0  0  0  0  0  0  0
    7.1677   44.0893   47.8575 N   0  0  0  0  0  4  0  0  0  0  0  0
    8.3111   45.0448   47.9730 C   0  0  0  0  0  0  0  0  0  0  0  0
    8.9532   44.9896   49.3553 C   0  0  0  0  0  0  0  0  0  0  0  0
    7.0042   45.8314   53.2035 N   0  0  0  0  0  0  0  0  0  0  0  0
    6.7012   46.8471   54.0280 C   0  0  0  0  0  0  0  0  0  0  0  0
    5.5041   46.8519   54.7375 N   0  0  0  0  0  0  0  0  0  0  0  0
    4.3479   46.0729   54.6366 C   0  0  0  0  0  0  0  0  0  0  0  0
    4.0708   45.2576   53.5315 C   0  0  0  0  0  0  0  0  0  0  0  0
    2.9375   44.4395   53.5004 C   0  0  0  0  0  0  0  0  0  0  0  0
    2.0619   44.4314   54.5799 C   0  0  0  0  0  0  0  0  0  0  0  0
    0.9991   43.5757   54.5249 O   0  0  0  0  0  0  0  0  0  0  0  0
   -0.2140   44.2156   54.0859 C   0  0  0  0  0  0  0  0  0  0  0  0
   -1.2433   44.0377   55.1802 C   0  0  0  0  0  0  0  0  0  0  0  0
   -1.7149   42.6166   54.9493 C   0  0  0  0  0  0  0  0  0  0  0  0
   -1.6021   42.3553   53.5423 O   0  0  0  0  0  0  0  0  0  0  0  0
   -0.8625   43.4376   52.9462 C   0  0  0  0  0  0  0  0  0  0  0  0
    2.3276   45.2075   55.7018 C   0  0  0  0  0  0  0  0  0  0  0  0
    3.4609   46.0274   55.7236 C   0  0  0  0  0  0  0  0  0  0  0  0
    7.5326   47.8671   54.2689 N   0  0  0  0  0  0  0  0  0  0  0  0
    9.4089   48.6891   53.7985 H   0  0  0  0  0  0  0  0  0  0  0  0
   10.0713   46.8677   52.2558 H   0  0  0  0  0  0  0  0  0  0  0  0
    9.5730   44.7175   51.7225 H   0  0  0  0  0  0  0  0  0  0  0  0
    7.1463   45.5211   50.4062 H   0  0  0  0  0  0  0  0  0  0  0  0
    7.6975   42.6137   50.8289 H   0  0  0  0  0  0  0  0  0  0  0  0
    6.1478   43.5087   50.4555 H   0  0  0  0  0  0  0  0  0  0  0  0
    8.2134   42.3843   48.5758 H   0  0  0  0  0  0  0  0  0  0  0  0
    6.4258   42.2243   48.5587 H   0  0  0  0  0  0  0  0  0  0  0  0
    7.0910   43.7683   46.8806 H   0  0  0  0  0  0  0  0  0  0  0  0
    6.2766   44.5746   48.0432 H   0  0  0  0  0  0  0  0  0  0  0  0
    9.0682   44.7881   47.2174 H   0  0  0  0  0  0  0  0  0  0  0  0
    7.9255   46.0626   47.8137 H   0  0  0  0  0  0  0  0  0  0  0  0
    9.6982   44.1805   49.3726 H   0  0  0  0  0  0  0  0  0  0  0  0
    9.4295   45.9605   49.5566 H   0  0  0  0  0  0  0  0  0  0  0  0
    5.4911   47.6245   55.3891 H   0  0  0  0  0  0  0  0  0  0  0  0
    4.7577   45.2611   52.6723 H   0  0  0  0  0  0  0  0  0  0  0  0
    2.7393   43.8044   52.6244 H   0  0  0  0  0  0  0  0  0  0  0  0
    0.0403   45.2509   53.8147 H   0  0  0  0  0  0  0  0  0  0  0  0
   -0.7900   44.1505   56.1761 H   0  0  0  0  0  0  0  0  0  0  0  0
   -2.0530   44.7818   55.1496 H   0  0  0  0  0  0  0  0  0  0  0  0
   -1.0851   41.9140   55.5148 H   0  0  0  0  0  0  0  0  0  0  0  0
   -2.7538   42.4901   55.2878 H   0  0  0  0  0  0  0  0  0  0  0  0
   -0.0894   43.0406   52.2720 H   0  0  0  0  0  0  0  0  0  0  0  0
   -1.5250   44.0869   52.3550 H   0  0  0  0  0  0  0  0  0  0  0  0
    1.6504   45.1773   56.5680 H   0  0  0  0  0  0  0  0  0  0  0  0
    3.6607   46.6483   56.6093 H   0  0  0  0  0  0  0  0  0  0  0  0
  1  2  2  0
  2  3  1  0
  3  4  1  0
  4  5  1  0
  5  6  1  0
  6  7  1  0
  7  8  1  0
  8  9  1  0
  9 10  1  0
  3 11  2  0
 11 12  1  0
 12 13  1  0
 13 14  1  0
 14 15  2  0
 15 16  1  0
 16 17  2  0
 17 18  1  0
 18 19  1  0
 19 20  1  0
 20 21  1  0
 21 22  1  0
 22 23  1  0
 17 24  1  0
 24 25  2  0
 12 26  2  0
 26  1  1  0
 10  5  1  0
 25 14  1  0
 23 19  1  0
  1 27  1  0
  2 28  1  0
  4 29  1  0
  5 30  1  0
  6 31  1  0
  6 32  1  0
  7 33  1  0
  7 34  1  0
  8 35  1  0
  8 36  1  0
  9 37  1  0
  9 38  1  0
 10 39  1  0
 10 40  1  0
 13 41  1  0
 15 42  1  0
 16 43  1  0
 19 44  1  0
 20 45  1  0
 20 46  1  0
 21 47  1  0
 21 48  1  0
 23 49  1  0
 23 50  1  0
 24 51  1  0
 25 52  1  0
M  CHG  1   8   1
M  END
>  <meeko>  (390) 
{"is_sidechain": false}

>  <CID>  (390) 
Z4122330572

>  <pose_index>  (390) 
3

>  <docking_score>  (390) 
-8.027

>  <rmsd_to_best_selected>  (390) 
0.0

>  <MWT>  (390) 
356.4499999999996

>  <TPSA>  (390) 
84.91000000000001

>  <logP>  (390) 
1.5255999999999985

>  <HBD>  (390) 
3

>  <HBA>  (390) 
6

>  <SMILES>  (390) 
[H]c1nc(N([H])c2c([H])c([H])c(OC3([H])C([H])([H])OC([H])([H])C3([H])[H])c([H])c2[H])nc(N([H])C2([H])C([H])([H])C([H])([H])[N+]([H])([H])C([H])([H])C2([H])[H])c1[H]

$$$$
Z4122330572_pose4
     RDKit          3D

 52 55  0  0  0  0  0  0  0  0999 V2000
    8.3161   46.4005   54.1917 C   0  0  0  0  0  0  0  0  0  0  0  0
    8.6535   45.4287   53.2811 C   0  0  0  0  0  0  0  0  0  0  0  0
    7.6651   45.0585   52.3979 C   0  0  0  0  0  0  0  0  0  0  0  0
    7.9306   44.0181   51.4780 N   0  0  0  0  0  0  0  0  0  0  0  0
    7.8583   44.4117   50.0672 C   0  0  0  0  0  0  0  0  0  0  0  0
    7.6346   43.1724   49.1728 C   0  0  0  0  0  0  0  0  0  0  0  0
    8.3400   43.2553   47.8327 C   0  0  0  0  0  0  0  0  0  0  0  0
    8.3276   44.6644   47.3553 N   0  0  0  0  0  4  0  0  0  0  0  0
    9.0873   45.6142   48.2245 C   0  0  0  0  0  0  0  0  0  0  0  0
    9.1483   45.1307   49.6695 C   0  0  0  0  0  0  0  0  0  0  0  0
    6.4513   45.6263   52.4264 N   0  0  0  0  0  0  0  0  0  0  0  0
    6.2004   46.5726   53.3462 C   0  0  0  0  0  0  0  0  0  0  0  0
    4.9365   47.1451   53.4470 N   0  0  0  0  0  0  0  0  0  0  0  0
    3.7234   46.6644   53.9514 C   0  0  0  0  0  0  0  0  0  0  0  0
    2.5732   46.5202   53.1650 C   0  0  0  0  0  0  0  0  0  0  0  0
    1.4008   45.9705   53.6886 C   0  0  0  0  0  0  0  0  0  0  0  0
    1.3644   45.5584   55.0164 C   0  0  0  0  0  0  0  0  0  0  0  0
    0.2142   44.9773   55.4664 O   0  0  0  0  0  0  0  0  0  0  0  0
   -0.3641   44.0676   54.5118 C   0  0  0  0  0  0  0  0  0  0  0  0
   -1.7984   43.8223   54.9283 C   0  0  0  0  0  0  0  0  0  0  0  0
   -1.6389   42.8092   56.0451 C   0  0  0  0  0  0  0  0  0  0  0  0
   -0.4701   42.0316   55.7484 O   0  0  0  0  0  0  0  0  0  0  0  0
    0.2256   42.6687   54.6602 C   0  0  0  0  0  0  0  0  0  0  0  0
    2.5000   45.6603   55.8120 C   0  0  0  0  0  0  0  0  0  0  0  0
    3.6693   46.2174   55.2802 C   0  0  0  0  0  0  0  0  0  0  0  0
    7.1042   46.9760   54.2467 N   0  0  0  0  0  0  0  0  0  0  0  0
    9.0796   46.7244   54.9144 H   0  0  0  0  0  0  0  0  0  0  0  0
    9.6545   44.9733   53.2592 H   0  0  0  0  0  0  0  0  0  0  0  0
    8.8189   43.5954   51.7476 H   0  0  0  0  0  0  0  0  0  0  0  0
    7.0076   45.0949   49.9273 H   0  0  0  0  0  0  0  0  0  0  0  0
    8.0067   42.2860   49.7074 H   0  0  0  0  0  0  0  0  0  0  0  0
    6.5557   43.1142   48.9663 H   0  0  0  0  0  0  0  0  0  0  0  0
    9.3800   42.9143   47.9434 H   0  0  0  0  0  0  0  0  0  0  0  0
    7.8214   42.6153   47.1037 H   0  0  0  0  0  0  0  0  0  0  0  0
    8.7038   44.7044   46.3965 H   0  0  0  0  0  0  0  0  0  0  0  0
    7.3458   44.9725   47.2635 H   0  0  0  0  0  0  0  0  0  0  0  0
   10.1123   45.7099   47.8370 H   0  0  0  0  0  0  0  0  0  0  0  0
    8.5678   46.5837   48.2089 H   0  0  0  0  0  0  0  0  0  0  0  0
    9.9946   44.4368   49.7802 H   0  0  0  0  0  0  0  0  0  0  0  0
    9.2756   46.0054   50.3243 H   0  0  0  0  0  0  0  0  0  0  0  0
    4.9295   48.0504   52.9983 H   0  0  0  0  0  0  0  0  0  0  0  0
    2.5938   46.8463   52.1146 H   0  0  0  0  0  0  0  0  0  0  0  0
    0.5093   45.8639   53.0530 H   0  0  0  0  0  0  0  0  0  0  0  0
   -0.2101   44.4996   53.5120 H   0  0  0  0  0  0  0  0  0  0  0  0
   -2.2716   44.7461   55.2925 H   0  0  0  0  0  0  0  0  0  0  0  0
   -2.4436   43.4764   54.1073 H   0  0  0  0  0  0  0  0  0  0  0  0
   -1.5134   43.3261   57.0079 H   0  0  0  0  0  0  0  0  0  0  0  0
   -2.5279   42.1655   56.1185 H   0  0  0  0  0  0  0  0  0  0  0  0
    1.3003   42.7338   54.8853 H   0  0  0  0  0  0  0  0  0  0  0  0
    0.1098   42.0933   53.7299 H   0  0  0  0  0  0  0  0  0  0  0  0
    2.4800   45.3053   56.8530 H   0  0  0  0  0  0  0  0  0  0  0  0
    4.5623   46.3062   55.9163 H   0  0  0  0  0  0  0  0  0  0  0  0
  1  2  2  0
  2  3  1  0
  3  4  1  0
  4  5  1  0
  5  6  1  0
  6  7  1  0
  7  8  1  0
  8  9  1  0
  9 10  1  0
  3 11  2  0
 11 12  1  0
 12 13  1  0
 13 14  1  0
 14 15  2  0
 15 16  1  0
 16 17  2  0
 17 18  1  0
 18 19  1  0
 19 20  1  0
 20 21  1  0
 21 22  1  0
 22 23  1  0
 17 24  1  0
 24 25  2  0
 12 26  2  0
 26  1  1  0
 10  5  1  0
 25 14  1  0
 23 19  1  0
  1 27  1  0
  2 28  1  0
  4 29  1  0
  5 30  1  0
  6 31  1  0
  6 32  1  0
  7 33  1  0
  7 34  1  0
  8 35  1  0
  8 36  1  0
  9 37  1  0
  9 38  1  0
 10 39  1  0
 10 40  1  0
 13 41  1  0
 15 42  1  0
 16 43  1  0
 19 44  1  0
 20 45  1  0
 20 46  1  0
 21 47  1  0
 21 48  1  0
 23 49  1  0
 23 50  1  0
 24 51  1  0
 25 52  1  0
M  CHG  1   8   1
M  END
>  <meeko>  (391) 
{"is_sidechain": false}

>  <CID>  (391) 
Z4122330572

>  <pose_index>  (391) 
4

>  <docking_score>  (391) 
-7.995

>  <rmsd_to_best_selected>  (391) 
1.6076924584050416

>  <MWT>  (391) 
356.4499999999996

>  <TPSA>  (391) 
84.91000000000001

>  <logP>  (391) 
1.5255999999999985

>  <HBD>  (391) 
3

>  <HBA>  (391) 
6

>  <SMILES>  (391) 
[H]c1nc(N([H])c2c([H])c([H])c(OC3([H])C([H])([H])OC([H])([H])C3([H])[H])c([H])c2[H])nc(N([H])C2([H])C([H])([H])C([H])([H])[N+]([H])([H])C([H])([H])C2([H])[H])c1[H]

$$$$
Z4122330572_pose5
     RDKit          3D

 52 55  0  0  0  0  0  0  0  0999 V2000
    7.4196   46.8504   53.9596 C   0  0  0  0  0  0  0  0  0  0  0  0
    8.3818   46.6378   53.0023 C   0  0  0  0  0  0  0  0  0  0  0  0
    8.2134   45.5229   52.2119 C   0  0  0  0  0  0  0  0  0  0  0  0
    9.2030   45.2149   51.2512 N   0  0  0  0  0  0  0  0  0  0  0  0
    8.7027   45.0673   49.8806 C   0  0  0  0  0  0  0  0  0  0  0  0
    8.7405   43.5839   49.4499 C   0  0  0  0  0  0  0  0  0  0  0  0
    9.0746   43.3844   47.9844 C   0  0  0  0  0  0  0  0  0  0  0  0
    8.4734   44.4881   47.1881 N   0  0  0  0  0  4  0  0  0  0  0  0
    9.0206   45.8429   47.5035 C   0  0  0  0  0  0  0  0  0  0  0  0
    9.5485   45.9182   48.9313 C   0  0  0  0  0  0  0  0  0  0  0  0
    7.1638   44.7041   52.3696 N   0  0  0  0  0  0  0  0  0  0  0  0
    6.2644   44.9816   53.3277 C   0  0  0  0  0  0  0  0  0  0  0  0
    5.1926   44.1265   53.5635 N   0  0  0  0  0  0  0  0  0  0  0  0
    3.9046   44.3463   54.0630 C   0  0  0  0  0  0  0  0  0  0  0  0
    3.5731   44.1903   55.4144 C   0  0  0  0  0  0  0  0  0  0  0  0
    2.2915   44.4877   55.8853 C   0  0  0  0  0  0  0  0  0  0  0  0
    1.3205   44.9447   55.0014 C   0  0  0  0  0  0  0  0  0  0  0  0
    0.0998   45.2744   55.5180 O   0  0  0  0  0  0  0  0  0  0  0  0
   -0.9954   44.7218   54.7645 C   0  0  0  0  0  0  0  0  0  0  0  0
   -2.2723   45.0558   55.5056 C   0  0  0  0  0  0  0  0  0  0  0  0
   -2.2871   44.0136   56.6053 C   0  0  0  0  0  0  0  0  0  0  0  0
   -1.6295   42.8459   56.0921 O   0  0  0  0  0  0  0  0  0  0  0  0
   -1.0024   43.1986   54.8451 C   0  0  0  0  0  0  0  0  0  0  0  0
    1.6300   45.1389   53.6602 C   0  0  0  0  0  0  0  0  0  0  0  0
    2.9140   44.8327   53.1958 C   0  0  0  0  0  0  0  0  0  0  0  0
    6.3656   46.0380   54.1436 N   0  0  0  0  0  0  0  0  0  0  0  0
    7.5174   47.7323   54.6098 H   0  0  0  0  0  0  0  0  0  0  0  0
    9.2366   47.3182   52.8746 H   0  0  0  0  0  0  0  0  0  0  0  0
    9.9463   45.9056   51.3501 H   0  0  0  0  0  0  0  0  0  0  0  0
    7.6588   45.4118   49.8404 H   0  0  0  0  0  0  0  0  0  0  0  0
    9.5007   43.0661   50.0532 H   0  0  0  0  0  0  0  0  0  0  0  0
    7.7310   43.1767   49.6083 H   0  0  0  0  0  0  0  0  0  0  0  0
   10.1667   43.3889   47.8526 H   0  0  0  0  0  0  0  0  0  0  0  0
    8.6700   42.4205   47.6422 H   0  0  0  0  0  0  0  0  0  0  0  0
    8.6016   44.2938   46.1839 H   0  0  0  0  0  0  0  0  0  0  0  0
    7.4501   44.4756   47.3273 H   0  0  0  0  0  0  0  0  0  0  0  0
    9.8423   46.0667   46.8072 H   0  0  0  0  0  0  0  0  0  0  0  0
    8.2062   46.5749   47.3995 H   0  0  0  0  0  0  0  0  0  0  0  0
   10.5858   45.5525   48.9498 H   0  0  0  0  0  0  0  0  0  0  0  0
    9.4996   46.9650   49.2655 H   0  0  0  0  0  0  0  0  0  0  0  0
    5.4695   43.1699   53.3912 H   0  0  0  0  0  0  0  0  0  0  0  0
    4.3359   43.8267   56.1186 H   0  0  0  0  0  0  0  0  0  0  0  0
    2.0518   44.3607   56.9513 H   0  0  0  0  0  0  0  0  0  0  0  0
   -0.9110   45.1022   53.7358 H   0  0  0  0  0  0  0  0  0  0  0  0
   -2.2375   46.0736   55.9213 H   0  0  0  0  0  0  0  0  0  0  0  0
   -3.1693   45.0383   54.8691 H   0  0  0  0  0  0  0  0  0  0  0  0
   -1.7509   44.3903   57.4888 H   0  0  0  0  0  0  0  0  0  0  0  0
   -3.3185   43.7797   56.9078 H   0  0  0  0  0  0  0  0  0  0  0  0
    0.0279   42.8142   54.8184 H   0  0  0  0  0  0  0  0  0  0  0  0
   -1.5473   42.7630   53.9946 H   0  0  0  0  0  0  0  0  0  0  0  0
    0.8701   45.5310   52.9682 H   0  0  0  0  0  0  0  0  0  0  0  0
    3.1514   44.9759   52.1313 H   0  0  0  0  0  0  0  0  0  0  0  0
  1  2  2  0
  2  3  1  0
  3  4  1  0
  4  5  1  0
  5  6  1  0
  6  7  1  0
  7  8  1  0
  8  9  1  0
  9 10  1  0
  3 11  2  0
 11 12  1  0
 12 13  1  0
 13 14  1  0
 14 15  2  0
 15 16  1  0
 16 17  2  0
 17 18  1  0
 18 19  1  0
 19 20  1  0
 20 21  1  0
 21 22  1  0
 22 23  1  0
 17 24  1  0
 24 25  2  0
 12 26  2  0
 26  1  1  0
 10  5  1  0
 25 14  1  0
 23 19  1  0
  1 27  1  0
  2 28  1  0
  4 29  1  0
  5 30  1  0
  6 31  1  0
  6 32  1  0
  7 33  1  0
  7 34  1  0
  8 35  1  0
  8 36  1  0
  9 37  1  0
  9 38  1  0
 10 39  1  0
 10 40  1  0
 13 41  1  0
 15 42  1  0
 16 43  1  0
 19 44  1  0
 20 45  1  0
 20 46  1  0
 21 47  1  0
 21 48  1  0
 23 49  1  0
 23 50  1  0
 24 51  1  0
 25 52  1  0
M  CHG  1   8   1
M  END
>  <meeko>  (392) 
{"is_sidechain": false}

>  <CID>  (392) 
Z4122330572

>  <pose_index>  (392) 
5

>  <docking_score>  (392) 
-7.916

>  <rmsd_to_best_selected>  (392) 
1.8894612790215468

>  <MWT>  (392) 
356.4499999999996

>  <TPSA>  (392) 
84.91000000000001

>  <logP>  (392) 
1.5255999999999985

>  <HBD>  (392) 
3

>  <HBA>  (392) 
6

>  <SMILES>  (392) 
[H]c1nc(N([H])c2c([H])c([H])c(OC3([H])C([H])([H])OC([H])([H])C3([H])[H])c([H])c2[H])nc(N([H])C2([H])C([H])([H])C([H])([H])[N+]([H])([H])C([H])([H])C2([H])[H])c1[H]

$$$$
Z4122330572_pose8
     RDKit          3D

 52 55  0  0  0  0  0  0  0  0999 V2000
    8.7164   45.3336   54.4028 C   0  0  0  0  0  0  0  0  0  0  0  0
    9.0762   44.8124   53.1838 C   0  0  0  0  0  0  0  0  0  0  0  0
    8.0948   44.7933   52.2193 C   0  0  0  0  0  0  0  0  0  0  0  0
    8.3849   44.2113   50.9647 N   0  0  0  0  0  0  0  0  0  0  0  0
    7.9707   45.0094   49.8069 C   0  0  0  0  0  0  0  0  0  0  0  0
    6.9926   44.2057   48.9202 C   0  0  0  0  0  0  0  0  0  0  0  0
    7.1507   44.4807   47.4374 C   0  0  0  0  0  0  0  0  0  0  0  0
    7.5023   45.9123   47.2368 N   0  0  0  0  0  4  0  0  0  0  0  0
    8.8197   46.3091   47.8202 C   0  0  0  0  0  0  0  0  0  0  0  0
    9.2034   45.4220   49.0002 C   0  0  0  0  0  0  0  0  0  0  0  0
    6.8648   45.2669   52.4622 N   0  0  0  0  0  0  0  0  0  0  0  0
    6.5913   45.7631   53.6803 C   0  0  0  0  0  0  0  0  0  0  0  0
    5.3106   46.2105   53.9920 N   0  0  0  0  0  0  0  0  0  0  0  0
    4.1573   45.5423   54.4127 C   0  0  0  0  0  0  0  0  0  0  0  0
    3.5175   44.5629   53.6413 C   0  0  0  0  0  0  0  0  0  0  0  0
    2.4077   43.8682   54.1275 C   0  0  0  0  0  0  0  0  0  0  0  0
    1.9185   44.1497   55.3983 C   0  0  0  0  0  0  0  0  0  0  0  0
    0.8661   43.4064   55.8492 O   0  0  0  0  0  0  0  0  0  0  0  0
   -0.3688   44.1455   55.8816 C   0  0  0  0  0  0  0  0  0  0  0  0
   -1.5011   43.1427   55.8315 C   0  0  0  0  0  0  0  0  0  0  0  0
   -1.5560   42.7947   54.3571 C   0  0  0  0  0  0  0  0  0  0  0  0
   -1.1322   43.9579   53.6314 O   0  0  0  0  0  0  0  0  0  0  0  0
   -0.5898   44.9005   54.5748 C   0  0  0  0  0  0  0  0  0  0  0  0
    2.5515   45.0952   56.1975 C   0  0  0  0  0  0  0  0  0  0  0  0
    3.6597   45.7901   55.7014 C   0  0  0  0  0  0  0  0  0  0  0  0
    7.4869   45.8044   54.6729 N   0  0  0  0  0  0  0  0  0  0  0  0
    9.4742   45.3674   55.1994 H   0  0  0  0  0  0  0  0  0  0  0  0
   10.0900   44.4322   52.9898 H   0  0  0  0  0  0  0  0  0  0  0  0
    9.3747   43.9648   50.9667 H   0  0  0  0  0  0  0  0  0  0  0  0
    7.4528   45.9130   50.1608 H   0  0  0  0  0  0  0  0  0  0  0  0
    7.1654   43.1336   49.0953 H   0  0  0  0  0  0  0  0  0  0  0  0
    5.9750   44.5168   49.1989 H   0  0  0  0  0  0  0  0  0  0  0  0
    7.9506   43.8454   47.0292 H   0  0  0  0  0  0  0  0  0  0  0  0
    6.2067   44.2574   46.9188 H   0  0  0  0  0  0  0  0  0  0  0  0
    7.4975   46.1265   46.2280 H   0  0  0  0  0  0  0  0  0  0  0  0
    6.7474   46.4954   47.6308 H   0  0  0  0  0  0  0  0  0  0  0  0
    9.5939   46.2240   47.0435 H   0  0  0  0  0  0  0  0  0  0  0  0
    8.7370   47.3447   48.1819 H   0  0  0  0  0  0  0  0  0  0  0  0
    9.7034   44.5183   48.6219 H   0  0  0  0  0  0  0  0  0  0  0  0
    9.8760   45.9909   49.6591 H   0  0  0  0  0  0  0  0  0  0  0  0
    5.2329   47.1991   53.7965 H   0  0  0  0  0  0  0  0  0  0  0  0
    3.8965   44.3370   52.6337 H   0  0  0  0  0  0  0  0  0  0  0  0
    1.9222   43.1007   53.5070 H   0  0  0  0  0  0  0  0  0  0  0  0
   -0.3347   44.8032   56.7627 H   0  0  0  0  0  0  0  0  0  0  0  0
   -1.2758   42.2561   56.4424 H   0  0  0  0  0  0  0  0  0  0  0  0
   -2.4509   43.5291   56.2296 H   0  0  0  0  0  0  0  0  0  0  0  0
   -0.8831   41.9511   54.1435 H   0  0  0  0  0  0  0  0  0  0  0  0
   -2.5740   42.4997   54.0628 H   0  0  0  0  0  0  0  0  0  0  0  0
    0.3652   45.3001   54.2031 H   0  0  0  0  0  0  0  0  0  0  0  0
   -1.2756   45.7479   54.7219 H   0  0  0  0  0  0  0  0  0  0  0  0
    2.1829   45.2957   57.2143 H   0  0  0  0  0  0  0  0  0  0  0  0
    4.1503   46.5451   56.3333 H   0  0  0  0  0  0  0  0  0  0  0  0
  1  2  2  0
  2  3  1  0
  3  4  1  0
  4  5  1  0
  5  6  1  0
  6  7  1  0
  7  8  1  0
  8  9  1  0
  9 10  1  0
  3 11  2  0
 11 12  1  0
 12 13  1  0
 13 14  1  0
 14 15  2  0
 15 16  1  0
 16 17  2  0
 17 18  1  0
 18 19  1  0
 19 20  1  0
 20 21  1  0
 21 22  1  0
 22 23  1  0
 17 24  1  0
 24 25  2  0
 12 26  2  0
 26  1  1  0
 10  5  1  0
 25 14  1  0
 23 19  1  0
  1 27  1  0
  2 28  1  0
  4 29  1  0
  5 30  1  0
  6 31  1  0
  6 32  1  0
  7 33  1  0
  7 34  1  0
  8 35  1  0
  8 36  1  0
  9 37  1  0
  9 38  1  0
 10 39  1  0
 10 40  1  0
 13 41  1  0
 15 42  1  0
 16 43  1  0
 19 44  1  0
 20 45  1  0
 20 46  1  0
 21 47  1  0
 21 48  1  0
 23 49  1  0
 23 50  1  0
 24 51  1  0
 25 52  1  0
M  CHG  1   8   1
M  END
>  <meeko>  (393) 
{"is_sidechain": false}

>  <CID>  (393) 
Z4122330572

>  <pose_index>  (393) 
8

>  <docking_score>  (393) 
-7.851

>  <rmsd_to_best_selected>  (393) 
1.2268204554718132

>  <MWT>  (393) 
356.4499999999996

>  <TPSA>  (393) 
84.91000000000001

>  <logP>  (393) 
1.5255999999999985

>  <HBD>  (393) 
3

>  <HBA>  (393) 
6

>  <SMILES>  (393) 
[H]c1nc(N([H])c2c([H])c([H])c(OC3([H])C([H])([H])OC([H])([H])C3([H])[H])c([H])c2[H])nc(N([H])C2([H])C([H])([H])C([H])([H])[N+]([H])([H])C([H])([H])C2([H])[H])c1[H]

$$$$
Z4122330572_pose10
     RDKit          3D

 52 55  0  0  0  0  0  0  0  0999 V2000
    8.8973   45.7997   54.2124 C   0  0  0  0  0  0  0  0  0  0  0  0
    9.1228   45.6277   52.8690 C   0  0  0  0  0  0  0  0  0  0  0  0
    8.2864   44.7443   52.2235 C   0  0  0  0  0  0  0  0  0  0  0  0
    8.5090   44.4758   50.8533 N   0  0  0  0  0  0  0  0  0  0  0  0
    7.8803   45.4290   49.9318 C   0  0  0  0  0  0  0  0  0  0  0  0
    6.5251   44.8804   49.4321 C   0  0  0  0  0  0  0  0  0  0  0  0
    6.2133   45.2497   47.9942 C   0  0  0  0  0  0  0  0  0  0  0  0
    6.7380   46.6122   47.7105 N   0  0  0  0  0  4  0  0  0  0  0  0
    8.2263   46.7282   47.8001 C   0  0  0  0  0  0  0  0  0  0  0  0
    8.8165   45.6927   48.7508 C   0  0  0  0  0  0  0  0  0  0  0  0
    7.3080   44.1024   52.8762 N   0  0  0  0  0  0  0  0  0  0  0  0
    7.1496   44.3270   54.1903 C   0  0  0  0  0  0  0  0  0  0  0  0
    6.1842   43.6376   54.9163 N   0  0  0  0  0  0  0  0  0  0  0  0
    4.8213   43.8694   55.1272 C   0  0  0  0  0  0  0  0  0  0  0  0
    4.1163   44.9032   54.4958 C   0  0  0  0  0  0  0  0  0  0  0  0
    2.7400   45.0583   54.6783 C   0  0  0  0  0  0  0  0  0  0  0  0
    2.0492   44.1780   55.5031 C   0  0  0  0  0  0  0  0  0  0  0  0
    0.6969   44.3372   55.6071 O   0  0  0  0  0  0  0  0  0  0  0  0
    0.0608   44.5657   54.3349 C   0  0  0  0  0  0  0  0  0  0  0  0
   -1.3876   44.9083   54.6047 C   0  0  0  0  0  0  0  0  0  0  0  0
   -1.9998   43.5435   54.8526 C   0  0  0  0  0  0  0  0  0  0  0  0
   -1.2596   42.5980   54.0668 O   0  0  0  0  0  0  0  0  0  0  0  0
   -0.0881   43.2622   53.5559 C   0  0  0  0  0  0  0  0  0  0  0  0
    2.7171   43.1250   56.1185 C   0  0  0  0  0  0  0  0  0  0  0  0
    4.0967   42.9803   55.9348 C   0  0  0  0  0  0  0  0  0  0  0  0
    7.9293   45.1594   54.8896 N   0  0  0  0  0  0  0  0  0  0  0  0
    9.5434   46.4988   54.7636 H   0  0  0  0  0  0  0  0  0  0  0  0
    9.9242   46.1638   52.3395 H   0  0  0  0  0  0  0  0  0  0  0  0
    9.5148   44.3743   50.7239 H   0  0  0  0  0  0  0  0  0  0  0  0
    7.6947   46.3745   50.4626 H   0  0  0  0  0  0  0  0  0  0  0  0
    6.5427   43.7836   49.5134 H   0  0  0  0  0  0  0  0  0  0  0  0
    5.7428   45.3340   50.0584 H   0  0  0  0  0  0  0  0  0  0  0  0
    6.6890   44.5246   47.3174 H   0  0  0  0  0  0  0  0  0  0  0  0
    5.1245   45.2348   47.8383 H   0  0  0  0  0  0  0  0  0  0  0  0
    6.4292   46.9084   46.7729 H   0  0  0  0  0  0  0  0  0  0  0  0
    6.2888   47.2801   48.3570 H   0  0  0  0  0  0  0  0  0  0  0  0
    8.6564   46.5789   46.7988 H   0  0  0  0  0  0  0  0  0  0  0  0
    8.4694   47.7282   48.1886 H   0  0  0  0  0  0  0  0  0  0  0  0
    8.9766   44.7525   48.2028 H   0  0  0  0  0  0  0  0  0  0  0  0
    9.7689   46.0810   49.1411 H   0  0  0  0  0  0  0  0  0  0  0  0
    6.6116   42.8740   55.4224 H   0  0  0  0  0  0  0  0  0  0  0  0
    4.6569   45.6056   53.8444 H   0  0  0  0  0  0  0  0  0  0  0  0
    2.2046   45.8744   54.1709 H   0  0  0  0  0  0  0  0  0  0  0  0
    0.6532   45.3248   53.8031 H   0  0  0  0  0  0  0  0  0  0  0  0
   -1.4862   45.5559   55.4883 H   0  0  0  0  0  0  0  0  0  0  0  0
   -1.8686   45.4657   53.7874 H   0  0  0  0  0  0  0  0  0  0  0  0
   -1.9271   43.2859   55.9195 H   0  0  0  0  0  0  0  0  0  0  0  0
   -3.0637   43.5359   54.5732 H   0  0  0  0  0  0  0  0  0  0  0  0
    0.7996   42.6299   53.7042 H   0  0  0  0  0  0  0  0  0  0  0  0
   -0.1866   43.4581   52.4779 H   0  0  0  0  0  0  0  0  0  0  0  0
    2.1644   42.4102   56.7458 H   0  0  0  0  0  0  0  0  0  0  0  0
    4.6233   42.1532   56.4333 H   0  0  0  0  0  0  0  0  0  0  0  0
  1  2  2  0
  2  3  1  0
  3  4  1  0
  4  5  1  0
  5  6  1  0
  6  7  1  0
  7  8  1  0
  8  9  1  0
  9 10  1  0
  3 11  2  0
 11 12  1  0
 12 13  1  0
 13 14  1  0
 14 15  2  0
 15 16  1  0
 16 17  2  0
 17 18  1  0
 18 19  1  0
 19 20  1  0
 20 21  1  0
 21 22  1  0
 22 23  1  0
 17 24  1  0
 24 25  2  0
 12 26  2  0
 26  1  1  0
 10  5  1  0
 25 14  1  0
 23 19  1  0
  1 27  1  0
  2 28  1  0
  4 29  1  0
  5 30  1  0
  6 31  1  0
  6 32  1  0
  7 33  1  0
  7 34  1  0
  8 35  1  0
  8 36  1  0
  9 37  1  0
  9 38  1  0
 10 39  1  0
 10 40  1  0
 13 41  1  0
 15 42  1  0
 16 43  1  0
 19 44  1  0
 20 45  1  0
 20 46  1  0
 21 47  1  0
 21 48  1  0
 23 49  1  0
 23 50  1  0
 24 51  1  0
 25 52  1  0
M  CHG  1   8   1
M  END
>  <meeko>  (394) 
{"is_sidechain": false}

>  <CID>  (394) 
Z4122330572

>  <pose_index>  (394) 
10

>  <docking_score>  (394) 
-7.796

>  <rmsd_to_best_selected>  (394) 
1.202454868634058

>  <MWT>  (394) 
356.4499999999996

>  <TPSA>  (394) 
84.91000000000001

>  <logP>  (394) 
1.5255999999999985

>  <HBD>  (394) 
3

>  <HBA>  (394) 
6

>  <SMILES>  (394) 
[H]c1nc(N([H])c2c([H])c([H])c(OC3([H])C([H])([H])OC([H])([H])C3([H])[H])c([H])c2[H])nc(N([H])C2([H])C([H])([H])C([H])([H])[N+]([H])([H])C([H])([H])C2([H])[H])c1[H]

$$$$
Z442313918_pose5
     RDKit          3D

 38 40  0  0  0  0  0  0  0  0999 V2000
    8.2865   48.4387   54.0242 C   0  0  0  0  0  0  0  0  0  0  0  0
    8.6610   47.3885   53.1406 O   0  0  0  0  0  0  0  0  0  0  0  0
    7.7289   46.4170   52.9073 C   0  0  0  0  0  0  0  0  0  0  0  0
    7.2820   46.3419   51.5859 C   0  0  0  0  0  0  0  0  0  0  0  0
    6.3265   45.3951   51.2041 C   0  0  0  0  0  0  0  0  0  0  0  0
    5.8106   44.4972   52.1471 C   0  0  0  0  0  0  0  0  0  0  0  0
    4.7909   43.4874   51.7785 C   0  0  0  0  0  0  0  0  0  0  0  0
    3.6261   43.5572   52.5094 N   0  0  0  0  0  0  0  0  0  0  0  0
    2.6648   42.7220   52.2780 C   0  0  0  0  0  0  0  0  0  0  0  0
    1.4606   42.6840   52.9318 N   0  0  0  0  0  0  0  0  0  0  0  0
    0.9455   43.5369   53.9294 C   0  0  0  0  0  0  0  0  0  0  0  0
    1.5234   43.7201   55.1890 C   0  0  0  0  0  0  0  0  0  0  0  0
    0.9465   44.5741   56.1359 C   0  0  0  0  0  0  0  0  0  0  0  0
   -0.2269   45.2596   55.8401 C   0  0  0  0  0  0  0  0  0  0  0  0
   -0.8243   45.0908   54.5962 C   0  0  0  0  0  0  0  0  0  0  0  0
   -0.2431   44.2364   53.6539 C   0  0  0  0  0  0  0  0  0  0  0  0
    2.8157   41.7639   51.3106 N   0  0  0  0  0  0  0  0  0  0  0  0
    3.9421   41.6196   50.5530 C   0  0  0  0  0  0  0  0  0  0  0  0
    4.0173   40.7358   49.7044 O   0  0  0  0  0  0  0  0  0  0  0  0
    5.0323   42.5723   50.8226 C   0  0  0  0  0  0  0  0  0  0  0  0
    6.2408   42.4589   50.0890 C   0  0  0  0  0  0  0  0  0  0  0  0
    7.2202   42.3534   49.4742 N   0  0  0  0  0  0  0  0  0  0  0  0
    6.2486   44.5852   53.4756 C   0  0  0  0  0  0  0  0  0  0  0  0
    7.2053   45.5363   53.8526 C   0  0  0  0  0  0  0  0  0  0  0  0
    8.3072   49.3970   53.4844 H   0  0  0  0  0  0  0  0  0  0  0  0
    7.2708   48.2537   54.4040 H   0  0  0  0  0  0  0  0  0  0  0  0
    8.9918   48.4775   54.8674 H   0  0  0  0  0  0  0  0  0  0  0  0
    7.6872   47.0369   50.8357 H   0  0  0  0  0  0  0  0  0  0  0  0
    5.9793   45.3554   50.1610 H   0  0  0  0  0  0  0  0  0  0  0  0
    0.8157   41.9550   52.6671 H   0  0  0  0  0  0  0  0  0  0  0  0
    2.4495   43.1826   55.4408 H   0  0  0  0  0  0  0  0  0  0  0  0
    1.4235   44.7038   57.1187 H   0  0  0  0  0  0  0  0  0  0  0  0
   -0.6792   45.9305   56.5853 H   0  0  0  0  0  0  0  0  0  0  0  0
   -1.7528   45.6285   54.3535 H   0  0  0  0  0  0  0  0  0  0  0  0
   -0.7268   44.1084   52.6744 H   0  0  0  0  0  0  0  0  0  0  0  0
    2.0801   41.1054   51.1128 H   0  0  0  0  0  0  0  0  0  0  0  0
    5.8363   43.8997   54.2306 H   0  0  0  0  0  0  0  0  0  0  0  0
    7.5445   45.5883   54.8977 H   0  0  0  0  0  0  0  0  0  0  0  0
  1  2  1  0
  2  3  1  0
  3  4  2  0
  4  5  1  0
  5  6  2  0
  6  7  1  0
  7  8  1  0
  8  9  2  0
  9 10  1  0
 10 11  1  0
 11 12  2  0
 12 13  1  0
 13 14  2  0
 14 15  1  0
 15 16  2  0
  9 17  1  0
 17 18  1  0
 18 19  2  0
 18 20  1  0
 20 21  1  0
 21 22  3  0
  6 23  1  0
 23 24  2  0
 24  3  1  0
 20  7  2  0
 16 11  1  0
  1 25  1  0
  1 26  1  0
  1 27  1  0
  4 28  1  0
  5 29  1  0
 10 30  1  0
 12 31  1  0
 13 32  1  0
 14 33  1  0
 15 34  1  0
 16 35  1  0
 17 36  1  0
 23 37  1  0
 24 38  1  0
M  END
>  <meeko>  (395) 
{"is_sidechain": false}

>  <CID>  (395) 
Z442313918

>  <pose_index>  (395) 
5

>  <docking_score>  (395) 
-7.807

>  <rmsd_to_best_selected>  (395) 
0.9705921107177826

>  <MWT>  (395) 
318.33599999999973

>  <TPSA>  (395) 
90.79999999999998

>  <logP>  (395) 
3.0607800000000003

>  <HBD>  (395) 
2

>  <HBA>  (395) 
5

>  <SMILES>  (395) 
[H]c1c([H])c([H])c(N([H])c2nc(-c3c([H])c([H])c(OC([H])([H])[H])c([H])c3[H])c(C#N)c(=O)n2[H])c([H])c1[H]

$$$$
Z442313918_pose1
     RDKit          3D

 38 40  0  0  0  0  0  0  0  0999 V2000
    9.4780   47.6360   53.7580 C   0  0  0  0  0  0  0  0  0  0  0  0
    8.1590   47.9640   53.3380 O   0  0  0  0  0  0  0  0  0  0  0  0
    7.3210   46.9190   53.0660 C   0  0  0  0  0  0  0  0  0  0  0  0
    6.9240   46.8220   51.7300 C   0  0  0  0  0  0  0  0  0  0  0  0
    6.0660   45.8020   51.3090 C   0  0  0  0  0  0  0  0  0  0  0  0
    5.5990   44.8530   52.2260 C   0  0  0  0  0  0  0  0  0  0  0  0
    4.6800   43.7650   51.8150 C   0  0  0  0  0  0  0  0  0  0  0  0
    3.5020   43.7110   52.5260 N   0  0  0  0  0  0  0  0  0  0  0  0
    2.6250   42.7990   52.2570 C   0  0  0  0  0  0  0  0  0  0  0  0
    1.4190   42.6350   52.8870 N   0  0  0  0  0  0  0  0  0  0  0  0
    0.8120   43.4130   53.8940 C   0  0  0  0  0  0  0  0  0  0  0  0
    1.5030   44.2710   54.7550 C   0  0  0  0  0  0  0  0  0  0  0  0
    0.8340   45.0030   55.7440 C   0  0  0  0  0  0  0  0  0  0  0  0
   -0.5440   44.8850   55.8920 C   0  0  0  0  0  0  0  0  0  0  0  0
   -1.2540   44.0350   55.0520 C   0  0  0  0  0  0  0  0  0  0  0  0
   -0.5810   43.3060   54.0660 C   0  0  0  0  0  0  0  0  0  0  0  0
    2.8770   41.8820   51.2700 N   0  0  0  0  0  0  0  0  0  0  0  0
    4.0250   41.8590   50.5310 C   0  0  0  0  0  0  0  0  0  0  0  0
    4.1940   41.0070   49.6630 O   0  0  0  0  0  0  0  0  0  0  0  0
    5.0190   42.8990   50.8420 C   0  0  0  0  0  0  0  0  0  0  0  0
    6.2450   42.9130   50.1290 C   0  0  0  0  0  0  0  0  0  0  0  0
    7.2380   42.9210   49.5270 N   0  0  0  0  0  0  0  0  0  0  0  0
    5.9850   44.9620   53.5690 C   0  0  0  0  0  0  0  0  0  0  0  0
    6.8440   45.9860   53.9850 C   0  0  0  0  0  0  0  0  0  0  0  0
    9.5208   47.6254   54.8571 H   0  0  0  0  0  0  0  0  0  0  0  0
    9.7498   46.6429   53.3708 H   0  0  0  0  0  0  0  0  0  0  0  0
   10.1833   48.3861   53.3708 H   0  0  0  0  0  0  0  0  0  0  0  0
    7.2915   47.5580   50.9998 H   0  0  0  0  0  0  0  0  0  0  0  0
    5.7571   45.7449   50.2548 H   0  0  0  0  0  0  0  0  0  0  0  0
    0.8470   41.8580   52.5930 H   0  0  0  0  0  0  0  0  0  0  0  0
    2.5935   44.3731   54.6536 H   0  0  0  0  0  0  0  0  0  0  0  0
    1.4006   45.6739   56.4064 H   0  0  0  0  0  0  0  0  0  0  0  0
   -1.0686   45.4607   56.6688 H   0  0  0  0  0  0  0  0  0  0  0  0
   -2.3439   43.9358   55.1625 H   0  0  0  0  0  0  0  0  0  0  0  0
   -1.1534   42.6337   53.4100 H   0  0  0  0  0  0  0  0  0  0  0  0
    2.2080   41.1650   51.0430 H   0  0  0  0  0  0  0  0  0  0  0  0
    5.6089   44.2351   54.3040 H   0  0  0  0  0  0  0  0  0  0  0  0
    7.1437   46.0546   55.0412 H   0  0  0  0  0  0  0  0  0  0  0  0
  1  2  1  0
  2  3  1  0
  3  4  2  0
  4  5  1  0
  5  6  2  0
  6  7  1  0
  7  8  1  0
  8  9  2  0
  9 10  1  0
 10 11  1  0
 11 12  2  0
 12 13  1  0
 13 14  2  0
 14 15  1  0
 15 16  2  0
  9 17  1  0
 17 18  1  0
 18 19  2  0
 18 20  1  0
 20 21  1  0
 21 22  3  0
  6 23  1  0
 23 24  2  0
 24  3  1  0
 20  7  2  0
 16 11  1  0
  1 25  1  0
  1 26  1  0
  1 27  1  0
  4 28  1  0
  5 29  1  0
 10 30  1  0
 12 31  1  0
 13 32  1  0
 14 33  1  0
 15 34  1  0
 16 35  1  0
 17 36  1  0
 23 37  1  0
 24 38  1  0
M  END
>  <meeko>  (396) 
{"is_sidechain": false}

>  <CID>  (396) 
Z442313918

>  <pose_index>  (396) 
1

>  <docking_score>  (396) 
-8.993

>  <rmsd_to_best_selected>  (396) 
0.0

>  <MWT>  (396) 
318.33599999999973

>  <TPSA>  (396) 
90.79999999999998

>  <logP>  (396) 
3.0607800000000003

>  <HBD>  (396) 
2

>  <HBA>  (396) 
5

>  <SMILES>  (396) 
[H]c1c([H])c([H])c(N([H])c2nc(-c3c([H])c([H])c(OC([H])([H])[H])c([H])c3[H])c(C#N)c(=O)n2[H])c([H])c1[H]

$$$$
Z442313918_pose2
     RDKit          3D

 38 40  0  0  0  0  0  0  0  0999 V2000
    8.4052   48.1061   54.3847 C   0  0  0  0  0  0  0  0  0  0  0  0
    8.8248   47.0758   53.4980 O   0  0  0  0  0  0  0  0  0  0  0  0
    7.8463   46.2820   52.9668 C   0  0  0  0  0  0  0  0  0  0  0  0
    7.2551   45.3993   53.8747 C   0  0  0  0  0  0  0  0  0  0  0  0
    6.2407   44.5272   53.4685 C   0  0  0  0  0  0  0  0  0  0  0  0
    5.7968   44.5344   52.1409 C   0  0  0  0  0  0  0  0  0  0  0  0
    4.7298   43.6161   51.6752 C   0  0  0  0  0  0  0  0  0  0  0  0
    3.5648   43.6751   52.4058 N   0  0  0  0  0  0  0  0  0  0  0  0
    2.5652   42.9143   52.0948 C   0  0  0  0  0  0  0  0  0  0  0  0
    1.3564   42.8749   52.7378 N   0  0  0  0  0  0  0  0  0  0  0  0
    0.8754   43.6549   53.8092 C   0  0  0  0  0  0  0  0  0  0  0  0
    1.3160   44.9494   54.1060 C   0  0  0  0  0  0  0  0  0  0  0  0
    0.8026   45.6598   55.1966 C   0  0  0  0  0  0  0  0  0  0  0  0
   -0.1614   45.0846   56.0184 C   0  0  0  0  0  0  0  0  0  0  0  0
   -0.6126   43.7972   55.7479 C   0  0  0  0  0  0  0  0  0  0  0  0
   -0.0963   43.0916   54.6556 C   0  0  0  0  0  0  0  0  0  0  0  0
    2.6765   42.0453   51.0413 N   0  0  0  0  0  0  0  0  0  0  0  0
    3.8000   41.9163   50.2770 C   0  0  0  0  0  0  0  0  0  0  0  0
    3.8387   41.1138   49.3491 O   0  0  0  0  0  0  0  0  0  0  0  0
    4.9341   42.7842   50.6375 C   0  0  0  0  0  0  0  0  0  0  0  0
    6.1407   42.6793   49.9004 C   0  0  0  0  0  0  0  0  0  0  0  0
    7.1204   42.6053   49.2821 N   0  0  0  0  0  0  0  0  0  0  0  0
    6.4032   45.4096   51.2290 C   0  0  0  0  0  0  0  0  0  0  0  0
    7.4189   46.2811   51.6407 C   0  0  0  0  0  0  0  0  0  0  0  0
    7.7853   47.6726   55.1833 H   0  0  0  0  0  0  0  0  0  0  0  0
    9.2879   48.5905   54.8278 H   0  0  0  0  0  0  0  0  0  0  0  0
    7.8181   48.8519   53.8287 H   0  0  0  0  0  0  0  0  0  0  0  0
    7.5919   45.3906   54.9218 H   0  0  0  0  0  0  0  0  0  0  0  0
    5.7903   43.8337   54.1939 H   0  0  0  0  0  0  0  0  0  0  0  0
    0.6777   42.2073   52.4033 H   0  0  0  0  0  0  0  0  0  0  0  0
    2.0810   45.4178   53.4693 H   0  0  0  0  0  0  0  0  0  0  0  0
    1.1630   46.6780   55.4053 H   0  0  0  0  0  0  0  0  0  0  0  0
   -0.5638   45.6440   56.8758 H   0  0  0  0  0  0  0  0  0  0  0  0
   -1.3746   43.3342   56.3921 H   0  0  0  0  0  0  0  0  0  0  0  0
   -0.4588   42.0728   54.4542 H   0  0  0  0  0  0  0  0  0  0  0  0
    1.9105   41.4454   50.7798 H   0  0  0  0  0  0  0  0  0  0  0  0
    6.0774   45.4117   50.1784 H   0  0  0  0  0  0  0  0  0  0  0  0
    7.8807   46.9668   50.9151 H   0  0  0  0  0  0  0  0  0  0  0  0
  1  2  1  0
  2  3  1  0
  3  4  2  0
  4  5  1  0
  5  6  2  0
  6  7  1  0
  7  8  1  0
  8  9  2  0
  9 10  1  0
 10 11  1  0
 11 12  2  0
 12 13  1  0
 13 14  2  0
 14 15  1  0
 15 16  2  0
  9 17  1  0
 17 18  1  0
 18 19  2  0
 18 20  1  0
 20 21  1  0
 21 22  3  0
  6 23  1  0
 23 24  2  0
 24  3  1  0
 20  7  2  0
 16 11  1  0
  1 25  1  0
  1 26  1  0
  1 27  1  0
  4 28  1  0
  5 29  1  0
 10 30  1  0
 12 31  1  0
 13 32  1  0
 14 33  1  0
 15 34  1  0
 16 35  1  0
 17 36  1  0
 23 37  1  0
 24 38  1  0
M  END
>  <meeko>  (397) 
{"is_sidechain": false}

>  <CID>  (397) 
Z442313918

>  <pose_index>  (397) 
2

>  <docking_score>  (397) 
-8.576

>  <rmsd_to_best_selected>  (397) 
0.986245629084304

>  <MWT>  (397) 
318.33599999999973

>  <TPSA>  (397) 
90.79999999999998

>  <logP>  (397) 
3.0607800000000003

>  <HBD>  (397) 
2

>  <HBA>  (397) 
5

>  <SMILES>  (397) 
[H]c1c([H])c([H])c(N([H])c2nc(-c3c([H])c([H])c(OC([H])([H])[H])c([H])c3[H])c(C#N)c(=O)n2[H])c([H])c1[H]

$$$$
Z442313918_pose3
     RDKit          3D

 38 40  0  0  0  0  0  0  0  0999 V2000
    9.3185   47.5883   53.8886 C   0  0  0  0  0  0  0  0  0  0  0  0
    8.1660   48.0003   53.1640 O   0  0  0  0  0  0  0  0  0  0  0  0
    7.2976   47.0194   52.7750 C   0  0  0  0  0  0  0  0  0  0  0  0
    7.3341   45.8639   53.5590 C   0  0  0  0  0  0  0  0  0  0  0  0
    6.4994   44.7781   53.2753 C   0  0  0  0  0  0  0  0  0  0  0  0
    5.6051   44.8413   52.2004 C   0  0  0  0  0  0  0  0  0  0  0  0
    4.7136   43.7051   51.8664 C   0  0  0  0  0  0  0  0  0  0  0  0
    3.5309   43.6784   52.5709 N   0  0  0  0  0  0  0  0  0  0  0  0
    2.6759   42.7289   52.3666 C   0  0  0  0  0  0  0  0  0  0  0  0
    1.4675   42.5874   52.9978 N   0  0  0  0  0  0  0  0  0  0  0  0
    0.8356   43.4254   53.9388 C   0  0  0  0  0  0  0  0  0  0  0  0
    1.4465   43.9176   55.0966 C   0  0  0  0  0  0  0  0  0  0  0  0
    0.7503   44.7352   55.9940 C   0  0  0  0  0  0  0  0  0  0  0  0
   -0.5771   45.0731   55.7519 C   0  0  0  0  0  0  0  0  0  0  0  0
   -1.2091   44.5929   54.6111 C   0  0  0  0  0  0  0  0  0  0  0  0
   -0.5090   43.7773   53.7165 C   0  0  0  0  0  0  0  0  0  0  0  0
    2.9570   41.7467   51.4543 N   0  0  0  0  0  0  0  0  0  0  0  0
    4.1111   41.6924   50.7267 C   0  0  0  0  0  0  0  0  0  0  0  0
    4.3062   40.7820   49.9275 O   0  0  0  0  0  0  0  0  0  0  0  0
    5.0802   42.7761   50.9648 C   0  0  0  0  0  0  0  0  0  0  0  0
    6.3116   42.7630   50.2615 C   0  0  0  0  0  0  0  0  0  0  0  0
    7.3204   42.7728   49.6862 N   0  0  0  0  0  0  0  0  0  0  0  0
    5.5824   45.9949   51.4057 C   0  0  0  0  0  0  0  0  0  0  0  0
    6.4199   47.0791   51.6940 C   0  0  0  0  0  0  0  0  0  0  0  0
   10.2230   47.8660   53.3276 H   0  0  0  0  0  0  0  0  0  0  0  0
    9.3301   48.0829   54.8711 H   0  0  0  0  0  0  0  0  0  0  0  0
    9.2936   46.4974   54.0276 H   0  0  0  0  0  0  0  0  0  0  0  0
    8.0282   45.8072   54.4105 H   0  0  0  0  0  0  0  0  0  0  0  0
    6.5458   43.8727   53.8983 H   0  0  0  0  0  0  0  0  0  0  0  0
    0.9161   41.7779   52.7599 H   0  0  0  0  0  0  0  0  0  0  0  0
    2.4945   43.6571   55.3060 H   0  0  0  0  0  0  0  0  0  0  0  0
    1.2554   45.1126   56.8953 H   0  0  0  0  0  0  0  0  0  0  0  0
   -1.1228   45.7159   56.4584 H   0  0  0  0  0  0  0  0  0  0  0  0
   -2.2589   44.8541   54.4120 H   0  0  0  0  0  0  0  0  0  0  0  0
   -1.0210   43.4020   52.8182 H   0  0  0  0  0  0  0  0  0  0  0  0
    2.3057   40.9992   51.2774 H   0  0  0  0  0  0  0  0  0  0  0  0
    4.8988   46.0494   50.5456 H   0  0  0  0  0  0  0  0  0  0  0  0
    6.3851   47.9810   51.0653 H   0  0  0  0  0  0  0  0  0  0  0  0
  1  2  1  0
  2  3  1  0
  3  4  2  0
  4  5  1  0
  5  6  2  0
  6  7  1  0
  7  8  1  0
  8  9  2  0
  9 10  1  0
 10 11  1  0
 11 12  2  0
 12 13  1  0
 13 14  2  0
 14 15  1  0
 15 16  2  0
  9 17  1  0
 17 18  1  0
 18 19  2  0
 18 20  1  0
 20 21  1  0
 21 22  3  0
  6 23  1  0
 23 24  2  0
 24  3  1  0
 20  7  2  0
 16 11  1  0
  1 25  1  0
  1 26  1  0
  1 27  1  0
  4 28  1  0
  5 29  1  0
 10 30  1  0
 12 31  1  0
 13 32  1  0
 14 33  1  0
 15 34  1  0
 16 35  1  0
 17 36  1  0
 23 37  1  0
 24 38  1  0
M  END
>  <meeko>  (398) 
{"is_sidechain": false}

>  <CID>  (398) 
Z442313918

>  <pose_index>  (398) 
3

>  <docking_score>  (398) 
-8.39

>  <rmsd_to_best_selected>  (398) 
0.5825108707019958

>  <MWT>  (398) 
318.33599999999973

>  <TPSA>  (398) 
90.79999999999998

>  <logP>  (398) 
3.0607800000000003

>  <HBD>  (398) 
2

>  <HBA>  (398) 
5

>  <SMILES>  (398) 
[H]c1c([H])c([H])c(N([H])c2nc(-c3c([H])c([H])c(OC([H])([H])[H])c([H])c3[H])c(C#N)c(=O)n2[H])c([H])c1[H]

$$$$
Z442313918_pose4
     RDKit          3D

 38 40  0  0  0  0  0  0  0  0999 V2000
    9.1318   48.1780   52.9239 C   0  0  0  0  0  0  0  0  0  0  0  0
    8.3987   47.5219   53.9508 O   0  0  0  0  0  0  0  0  0  0  0  0
    7.5507   46.5231   53.5612 C   0  0  0  0  0  0  0  0  0  0  0  0
    6.8300   46.7911   52.3939 C   0  0  0  0  0  0  0  0  0  0  0  0
    5.9241   45.8587   51.8804 C   0  0  0  0  0  0  0  0  0  0  0  0
    5.7337   44.6329   52.5290 C   0  0  0  0  0  0  0  0  0  0  0  0
    4.7736   43.6262   52.0175 C   0  0  0  0  0  0  0  0  0  0  0  0
    3.5489   43.6311   52.6464 N   0  0  0  0  0  0  0  0  0  0  0  0
    2.6321   42.7920   52.2858 C   0  0  0  0  0  0  0  0  0  0  0  0
    1.3783   42.6935   52.8281 N   0  0  0  0  0  0  0  0  0  0  0  0
    0.7579   43.4768   53.8221 C   0  0  0  0  0  0  0  0  0  0  0  0
    1.3686   43.8669   55.0182 C   0  0  0  0  0  0  0  0  0  0  0  0
    0.6853   44.6350   55.9674 C   0  0  0  0  0  0  0  0  0  0  0  0
   -0.6306   45.0254   55.7391 C   0  0  0  0  0  0  0  0  0  0  0  0
   -1.2622   44.6458   54.5604 C   0  0  0  0  0  0  0  0  0  0  0  0
   -0.5752   43.8786   53.6150 C   0  0  0  0  0  0  0  0  0  0  0  0
    2.8885   41.8939   51.2842 N   0  0  0  0  0  0  0  0  0  0  0  0
    4.0806   41.8146   50.6212 C   0  0  0  0  0  0  0  0  0  0  0  0
    4.2499   40.9830   49.7345 O   0  0  0  0  0  0  0  0  0  0  0  0
    5.1189   42.7723   51.0367 C   0  0  0  0  0  0  0  0  0  0  0  0
    6.3893   42.7240   50.4066 C   0  0  0  0  0  0  0  0  0  0  0  0
    7.4357   42.6982   49.9051 N   0  0  0  0  0  0  0  0  0  0  0  0
    6.4453   44.3730   53.7092 C   0  0  0  0  0  0  0  0  0  0  0  0
    7.3512   45.3108   54.2192 C   0  0  0  0  0  0  0  0  0  0  0  0
    9.6203   49.0729   53.3367 H   0  0  0  0  0  0  0  0  0  0  0  0
    9.8955   47.4945   52.5246 H   0  0  0  0  0  0  0  0  0  0  0  0
    8.4464   48.4742   52.1160 H   0  0  0  0  0  0  0  0  0  0  0  0
    6.9777   47.7483   51.8726 H   0  0  0  0  0  0  0  0  0  0  0  0
    5.3595   46.0887   50.9648 H   0  0  0  0  0  0  0  0  0  0  0  0
    0.7758   41.9677   52.4682 H   0  0  0  0  0  0  0  0  0  0  0  0
    2.4071   43.5638   55.2168 H   0  0  0  0  0  0  0  0  0  0  0  0
    1.1907   44.9316   56.8983 H   0  0  0  0  0  0  0  0  0  0  0  0
   -1.1669   45.6297   56.4855 H   0  0  0  0  0  0  0  0  0  0  0  0
   -2.3026   44.9491   54.3717 H   0  0  0  0  0  0  0  0  0  0  0  0
   -1.0881   43.5822   52.6881 H   0  0  0  0  0  0  0  0  0  0  0  0
    2.1904   41.2334   50.9855 H   0  0  0  0  0  0  0  0  0  0  0  0
    6.2900   43.4221   54.2399 H   0  0  0  0  0  0  0  0  0  0  0  0
    7.9073   45.0901   55.1423 H   0  0  0  0  0  0  0  0  0  0  0  0
  1  2  1  0
  2  3  1  0
  3  4  2  0
  4  5  1  0
  5  6  2  0
  6  7  1  0
  7  8  1  0
  8  9  2  0
  9 10  1  0
 10 11  1  0
 11 12  2  0
 12 13  1  0
 13 14  2  0
 14 15  1  0
 15 16  2  0
  9 17  1  0
 17 18  1  0
 18 19  2  0
 18 20  1  0
 20 21  1  0
 21 22  3  0
  6 23  1  0
 23 24  2  0
 24  3  1  0
 20  7  2  0
 16 11  1  0
  1 25  1  0
  1 26  1  0
  1 27  1  0
  4 28  1  0
  5 29  1  0
 10 30  1  0
 12 31  1  0
 13 32  1  0
 14 33  1  0
 15 34  1  0
 16 35  1  0
 17 36  1  0
 23 37  1  0
 24 38  1  0
M  END
>  <meeko>  (399) 
{"is_sidechain": false}

>  <CID>  (399) 
Z442313918

>  <pose_index>  (399) 
4

>  <docking_score>  (399) 
-7.886

>  <rmsd_to_best_selected>  (399) 
0.8354284865932269

>  <MWT>  (399) 
318.33599999999973

>  <TPSA>  (399) 
90.79999999999998

>  <logP>  (399) 
3.0607800000000003

>  <HBD>  (399) 
2

>  <HBA>  (399) 
5

>  <SMILES>  (399) 
[H]c1c([H])c([H])c(N([H])c2nc(-c3c([H])c([H])c(OC([H])([H])[H])c([H])c3[H])c(C#N)c(=O)n2[H])c([H])c1[H]

$$$$
Z442313918_pose6
     RDKit          3D

 38 40  0  0  0  0  0  0  0  0999 V2000
    8.2178   48.2927   54.2311 C   0  0  0  0  0  0  0  0  0  0  0  0
    8.6947   47.2175   53.4324 O   0  0  0  0  0  0  0  0  0  0  0  0
    7.7941   46.2395   53.1131 C   0  0  0  0  0  0  0  0  0  0  0  0
    6.8880   46.5858   52.1073 C   0  0  0  0  0  0  0  0  0  0  0  0
    5.9106   45.6819   51.6807 C   0  0  0  0  0  0  0  0  0  0  0  0
    5.8336   44.4074   52.2546 C   0  0  0  0  0  0  0  0  0  0  0  0
    4.8018   43.4291   51.8332 C   0  0  0  0  0  0  0  0  0  0  0  0
    3.5955   43.5533   52.4841 N   0  0  0  0  0  0  0  0  0  0  0  0
    2.6210   42.7493   52.2017 C   0  0  0  0  0  0  0  0  0  0  0  0
    1.3761   42.7661   52.7735 N   0  0  0  0  0  0  0  0  0  0  0  0
    0.8281   43.6525   53.7215 C   0  0  0  0  0  0  0  0  0  0  0  0
   -0.3149   43.3894   54.4846 C   0  0  0  0  0  0  0  0  0  0  0  0
   -0.8108   44.3256   55.3980 C   0  0  0  0  0  0  0  0  0  0  0  0
   -0.1725   45.5495   55.5655 C   0  0  0  0  0  0  0  0  0  0  0  0
    0.9632   45.8377   54.8170 C   0  0  0  0  0  0  0  0  0  0  0  0
    1.4545   44.8992   53.9051 C   0  0  0  0  0  0  0  0  0  0  0  0
    2.8002   41.7706   51.2597 N   0  0  0  0  0  0  0  0  0  0  0  0
    3.9676   41.5730   50.5805 C   0  0  0  0  0  0  0  0  0  0  0  0
    4.0663   40.6733   49.7526 O   0  0  0  0  0  0  0  0  0  0  0  0
    5.0726   42.4903   50.9088 C   0  0  0  0  0  0  0  0  0  0  0  0
    6.3221   42.3201   50.2585 C   0  0  0  0  0  0  0  0  0  0  0  0
    7.3497   42.1670   49.7409 N   0  0  0  0  0  0  0  0  0  0  0  0
    6.7319   44.0684   53.2757 C   0  0  0  0  0  0  0  0  0  0  0  0
    7.7089   44.9776   53.6987 C   0  0  0  0  0  0  0  0  0  0  0  0
    8.4828   49.2484   53.7554 H   0  0  0  0  0  0  0  0  0  0  0  0
    7.1242   48.2215   54.3266 H   0  0  0  0  0  0  0  0  0  0  0  0
    8.6772   48.2400   55.2291 H   0  0  0  0  0  0  0  0  0  0  0  0
    6.9445   47.5824   51.6453 H   0  0  0  0  0  0  0  0  0  0  0  0
    5.2006   45.9728   50.8925 H   0  0  0  0  0  0  0  0  0  0  0  0
    0.7239   42.0569   52.4766 H   0  0  0  0  0  0  0  0  0  0  0  0
   -0.8338   42.4271   54.3638 H   0  0  0  0  0  0  0  0  0  0  0  0
   -1.7103   44.0925   55.9867 H   0  0  0  0  0  0  0  0  0  0  0  0
   -0.5632   46.2842   56.2849 H   0  0  0  0  0  0  0  0  0  0  0  0
    1.4746   46.8035   54.9425 H   0  0  0  0  0  0  0  0  0  0  0  0
    2.3521   45.1408   53.3169 H   0  0  0  0  0  0  0  0  0  0  0  0
    2.0550   41.1355   51.0219 H   0  0  0  0  0  0  0  0  0  0  0  0
    6.6687   43.0777   53.7495 H   0  0  0  0  0  0  0  0  0  0  0  0
    8.4118   44.6950   54.4962 H   0  0  0  0  0  0  0  0  0  0  0  0
  1  2  1  0
  2  3  1  0
  3  4  2  0
  4  5  1  0
  5  6  2  0
  6  7  1  0
  7  8  1  0
  8  9  2  0
  9 10  1  0
 10 11  1  0
 11 12  2  0
 12 13  1  0
 13 14  2  0
 14 15  1  0
 15 16  2  0
  9 17  1  0
 17 18  1  0
 18 19  2  0
 18 20  1  0
 20 21  1  0
 21 22  3  0
  6 23  1  0
 23 24  2  0
 24  3  1  0
 20  7  2  0
 16 11  1  0
  1 25  1  0
  1 26  1  0
  1 27  1  0
  4 28  1  0
  5 29  1  0
 10 30  1  0
 12 31  1  0
 13 32  1  0
 14 33  1  0
 15 34  1  0
 16 35  1  0
 17 36  1  0
 23 37  1  0
 24 38  1  0
M  END
>  <meeko>  (400) 
{"is_sidechain": false}

>  <CID>  (400) 
Z442313918

>  <pose_index>  (400) 
6

>  <docking_score>  (400) 
-7.767

>  <rmsd_to_best_selected>  (400) 
1.0824589207570157

>  <MWT>  (400) 
318.33599999999973

>  <TPSA>  (400) 
90.79999999999998

>  <logP>  (400) 
3.0607800000000003

>  <HBD>  (400) 
2

>  <HBA>  (400) 
5

>  <SMILES>  (400) 
[H]c1c([H])c([H])c(N([H])c2nc(-c3c([H])c([H])c(OC([H])([H])[H])c([H])c3[H])c(C#N)c(=O)n2[H])c([H])c1[H]

$$$$
Z442313918_pose7
     RDKit          3D

 38 40  0  0  0  0  0  0  0  0999 V2000
    8.5207   48.5058   53.2278 C   0  0  0  0  0  0  0  0  0  0  0  0
    8.6552   47.2276   53.8373 O   0  0  0  0  0  0  0  0  0  0  0  0
    7.7694   46.2613   53.4464 C   0  0  0  0  0  0  0  0  0  0  0  0
    6.8603   46.6655   52.4657 C   0  0  0  0  0  0  0  0  0  0  0  0
    5.8972   45.7810   51.9725 C   0  0  0  0  0  0  0  0  0  0  0  0
    5.8371   44.4672   52.4523 C   0  0  0  0  0  0  0  0  0  0  0  0
    4.8220   43.5075   51.9588 C   0  0  0  0  0  0  0  0  0  0  0  0
    3.6075   43.5755   52.6045 N   0  0  0  0  0  0  0  0  0  0  0  0
    2.6464   42.7810   52.2613 C   0  0  0  0  0  0  0  0  0  0  0  0
    1.3958   42.7461   52.8202 N   0  0  0  0  0  0  0  0  0  0  0  0
    0.8284   43.5642   53.8191 C   0  0  0  0  0  0  0  0  0  0  0  0
    1.4309   43.8435   55.0497 C   0  0  0  0  0  0  0  0  0  0  0  0
    0.8006   44.6552   56.0002 C   0  0  0  0  0  0  0  0  0  0  0  0
   -0.4513   45.2005   55.7380 C   0  0  0  0  0  0  0  0  0  0  0  0
   -1.0750   44.9337   54.5241 C   0  0  0  0  0  0  0  0  0  0  0  0
   -0.4400   44.1225   53.5770 C   0  0  0  0  0  0  0  0  0  0  0  0
    2.8447   41.8669   51.2599 N   0  0  0  0  0  0  0  0  0  0  0  0
    4.0207   41.7265   50.5821 C   0  0  0  0  0  0  0  0  0  0  0  0
    4.1371   40.8827   49.6971 O   0  0  0  0  0  0  0  0  0  0  0  0
    5.1118   42.6326   50.9781 C   0  0  0  0  0  0  0  0  0  0  0  0
    6.3691   42.5187   50.3312 C   0  0  0  0  0  0  0  0  0  0  0  0
    7.4066   42.4233   49.8202 N   0  0  0  0  0  0  0  0  0  0  0  0
    6.7398   44.0692   53.4483 C   0  0  0  0  0  0  0  0  0  0  0  0
    7.7022   44.9591   53.9393 C   0  0  0  0  0  0  0  0  0  0  0  0
    8.3813   48.3822   52.1437 H   0  0  0  0  0  0  0  0  0  0  0  0
    7.6489   49.0248   53.6528 H   0  0  0  0  0  0  0  0  0  0  0  0
    9.4280   49.0988   53.4156 H   0  0  0  0  0  0  0  0  0  0  0  0
    6.9030   47.6935   52.0767 H   0  0  0  0  0  0  0  0  0  0  0  0
    5.1846   46.1180   51.2052 H   0  0  0  0  0  0  0  0  0  0  0  0
    0.7546   42.0499   52.4722 H   0  0  0  0  0  0  0  0  0  0  0  0
    2.4195   43.4170   55.2753 H   0  0  0  0  0  0  0  0  0  0  0  0
    1.2981   44.8626   56.9591 H   0  0  0  0  0  0  0  0  0  0  0  0
   -0.9450   45.8386   56.4858 H   0  0  0  0  0  0  0  0  0  0  0  0
   -2.0660   45.3598   54.3086 H   0  0  0  0  0  0  0  0  0  0  0  0
   -0.9442   43.9166   52.6213 H   0  0  0  0  0  0  0  0  0  0  0  0
    2.1091   41.2405   50.9744 H   0  0  0  0  0  0  0  0  0  0  0  0
    6.6913   43.0457   53.8484 H   0  0  0  0  0  0  0  0  0  0  0  0
    8.4076   44.6300   54.7165 H   0  0  0  0  0  0  0  0  0  0  0  0
  1  2  1  0
  2  3  1  0
  3  4  2  0
  4  5  1  0
  5  6  2  0
  6  7  1  0
  7  8  1  0
  8  9  2  0
  9 10  1  0
 10 11  1  0
 11 12  2  0
 12 13  1  0
 13 14  2  0
 14 15  1  0
 15 16  2  0
  9 17  1  0
 17 18  1  0
 18 19  2  0
 18 20  1  0
 20 21  1  0
 21 22  3  0
  6 23  1  0
 23 24  2  0
 24  3  1  0
 20  7  2  0
 16 11  1  0
  1 25  1  0
  1 26  1  0
  1 27  1  0
  4 28  1  0
  5 29  1  0
 10 30  1  0
 12 31  1  0
 13 32  1  0
 14 33  1  0
 15 34  1  0
 16 35  1  0
 17 36  1  0
 23 37  1  0
 24 38  1  0
M  END
>  <meeko>  (401) 
{"is_sidechain": false}

>  <CID>  (401) 
Z442313918

>  <pose_index>  (401) 
7

>  <docking_score>  (401) 
-7.657

>  <rmsd_to_best_selected>  (401) 
1.0640984567467129

>  <MWT>  (401) 
318.33599999999973

>  <TPSA>  (401) 
90.79999999999998

>  <logP>  (401) 
3.0607800000000003

>  <HBD>  (401) 
2

>  <HBA>  (401) 
5

>  <SMILES>  (401) 
[H]c1c([H])c([H])c(N([H])c2nc(-c3c([H])c([H])c(OC([H])([H])[H])c([H])c3[H])c(C#N)c(=O)n2[H])c([H])c1[H]

$$$$
Z442313918_pose8
     RDKit          3D

 38 40  0  0  0  0  0  0  0  0999 V2000
    9.3524   48.0072   53.2924 C   0  0  0  0  0  0  0  0  0  0  0  0
    7.9460   48.1489   53.1335 O   0  0  0  0  0  0  0  0  0  0  0  0
    7.2317   47.0049   52.9097 C   0  0  0  0  0  0  0  0  0  0  0  0
    6.1265   47.1617   52.0698 C   0  0  0  0  0  0  0  0  0  0  0  0
    5.3052   46.0752   51.7555 C   0  0  0  0  0  0  0  0  0  0  0  0
    5.5873   44.8061   52.2759 C   0  0  0  0  0  0  0  0  0  0  0  0
    4.7309   43.6355   51.9702 C   0  0  0  0  0  0  0  0  0  0  0  0
    3.5223   43.6232   52.6301 N   0  0  0  0  0  0  0  0  0  0  0  0
    2.6933   42.6469   52.4448 C   0  0  0  0  0  0  0  0  0  0  0  0
    1.4650   42.5153   53.0372 N   0  0  0  0  0  0  0  0  0  0  0  0
    0.7806   43.3892   53.9061 C   0  0  0  0  0  0  0  0  0  0  0  0
    0.6240   44.7614   53.6850 C   0  0  0  0  0  0  0  0  0  0  0  0
   -0.0567   45.5715   54.6015 C   0  0  0  0  0  0  0  0  0  0  0  0
   -0.5923   45.0221   55.7615 C   0  0  0  0  0  0  0  0  0  0  0  0
   -0.4456   43.6620   56.0067 C   0  0  0  0  0  0  0  0  0  0  0  0
    0.2353   42.8568   55.0876 C   0  0  0  0  0  0  0  0  0  0  0  0
    3.0282   41.6224   51.5995 N   0  0  0  0  0  0  0  0  0  0  0  0
    4.2107   41.5535   50.9201 C   0  0  0  0  0  0  0  0  0  0  0  0
    4.4537   40.6045   50.1807 O   0  0  0  0  0  0  0  0  0  0  0  0
    5.1497   42.6667   51.1356 C   0  0  0  0  0  0  0  0  0  0  0  0
    6.4070   42.6418   50.4816 C   0  0  0  0  0  0  0  0  0  0  0  0
    7.4379   42.5991   49.9481 N   0  0  0  0  0  0  0  0  0  0  0  0
    6.6867   44.6548   53.1321 C   0  0  0  0  0  0  0  0  0  0  0  0
    7.5068   45.7466   53.4436 C   0  0  0  0  0  0  0  0  0  0  0  0
    9.7423   47.3291   52.5189 H   0  0  0  0  0  0  0  0  0  0  0  0
    9.8336   48.9914   53.1935 H   0  0  0  0  0  0  0  0  0  0  0  0
    9.5690   47.5914   54.2875 H   0  0  0  0  0  0  0  0  0  0  0  0
    5.8996   48.1529   51.6503 H   0  0  0  0  0  0  0  0  0  0  0  0
    4.4352   46.2174   51.0976 H   0  0  0  0  0  0  0  0  0  0  0  0
    0.9370   41.6822   52.8230 H   0  0  0  0  0  0  0  0  0  0  0  0
    1.0437   45.2125   52.7737 H   0  0  0  0  0  0  0  0  0  0  0  0
   -0.1684   46.6477   54.4034 H   0  0  0  0  0  0  0  0  0  0  0  0
   -1.1284   45.6597   56.4800 H   0  0  0  0  0  0  0  0  0  0  0  0
   -0.8645   43.2192   56.9223 H   0  0  0  0  0  0  0  0  0  0  0  0
    0.3467   41.7821   55.2940 H   0  0  0  0  0  0  0  0  0  0  0  0
    2.3977   40.8536   51.4383 H   0  0  0  0  0  0  0  0  0  0  0  0
    6.9078   43.6677   53.5642 H   0  0  0  0  0  0  0  0  0  0  0  0
    8.3704   45.6111   54.1113 H   0  0  0  0  0  0  0  0  0  0  0  0
  1  2  1  0
  2  3  1  0
  3  4  2  0
  4  5  1  0
  5  6  2  0
  6  7  1  0
  7  8  1  0
  8  9  2  0
  9 10  1  0
 10 11  1  0
 11 12  2  0
 12 13  1  0
 13 14  2  0
 14 15  1  0
 15 16  2  0
  9 17  1  0
 17 18  1  0
 18 19  2  0
 18 20  1  0
 20 21  1  0
 21 22  3  0
  6 23  1  0
 23 24  2  0
 24  3  1  0
 20  7  2  0
 16 11  1  0
  1 25  1  0
  1 26  1  0
  1 27  1  0
  4 28  1  0
  5 29  1  0
 10 30  1  0
 12 31  1  0
 13 32  1  0
 14 33  1  0
 15 34  1  0
 16 35  1  0
 17 36  1  0
 23 37  1  0
 24 38  1  0
M  END
>  <meeko>  (402) 
{"is_sidechain": false}

>  <CID>  (402) 
Z442313918

>  <pose_index>  (402) 
8

>  <docking_score>  (402) 
-7.474

>  <rmsd_to_best_selected>  (402) 
1.1032363316048437

>  <MWT>  (402) 
318.33599999999973

>  <TPSA>  (402) 
90.79999999999998

>  <logP>  (402) 
3.0607800000000003

>  <HBD>  (402) 
2

>  <HBA>  (402) 
5

>  <SMILES>  (402) 
[H]c1c([H])c([H])c(N([H])c2nc(-c3c([H])c([H])c(OC([H])([H])[H])c([H])c3[H])c(C#N)c(=O)n2[H])c([H])c1[H]

$$$$
Z442313918_pose9
     RDKit          3D

 38 40  0  0  0  0  0  0  0  0999 V2000
    7.9246   48.6981   53.6428 C   0  0  0  0  0  0  0  0  0  0  0  0
    8.4466   47.7032   52.7712 O   0  0  0  0  0  0  0  0  0  0  0  0
    7.6693   46.5996   52.5576 C   0  0  0  0  0  0  0  0  0  0  0  0
    6.2936   46.8315   52.6319 C   0  0  0  0  0  0  0  0  0  0  0  0
    5.3793   45.7920   52.4356 C   0  0  0  0  0  0  0  0  0  0  0  0
    5.8351   44.4991   52.1520 C   0  0  0  0  0  0  0  0  0  0  0  0
    4.8928   43.3730   51.9487 C   0  0  0  0  0  0  0  0  0  0  0  0
    3.7026   43.4922   52.6301 N   0  0  0  0  0  0  0  0  0  0  0  0
    2.8038   42.5667   52.5318 C   0  0  0  0  0  0  0  0  0  0  0  0
    1.5838   42.5636   53.1555 N   0  0  0  0  0  0  0  0  0  0  0  0
    0.9828   43.5424   53.9723 C   0  0  0  0  0  0  0  0  0  0  0  0
    1.5798   44.7585   54.3200 C   0  0  0  0  0  0  0  0  0  0  0  0
    0.9276   45.6787   55.1482 C   0  0  0  0  0  0  0  0  0  0  0  0
   -0.3384   45.3967   55.6499 C   0  0  0  0  0  0  0  0  0  0  0  0
   -0.9519   44.1926   55.3239 C   0  0  0  0  0  0  0  0  0  0  0  0
   -0.2956   43.2760   54.4953 C   0  0  0  0  0  0  0  0  0  0  0  0
    3.0470   41.4638   51.7568 N   0  0  0  0  0  0  0  0  0  0  0  0
    4.2053   41.2638   51.0617 C   0  0  0  0  0  0  0  0  0  0  0  0
    4.3642   40.2499   50.3880 O   0  0  0  0  0  0  0  0  0  0  0  0
    5.2236   42.3212   51.1783 C   0  0  0  0  0  0  0  0  0  0  0  0
    6.4604   42.1614   50.5037 C   0  0  0  0  0  0  0  0  0  0  0  0
    7.4763   42.0114   49.9608 N   0  0  0  0  0  0  0  0  0  0  0  0
    7.2152   44.2656   52.0948 C   0  0  0  0  0  0  0  0  0  0  0  0
    8.1272   45.3104   52.2921 C   0  0  0  0  0  0  0  0  0  0  0  0
    6.8498   48.8287   53.4483 H   0  0  0  0  0  0  0  0  0  0  0  0
    8.0729   48.3852   54.6868 H   0  0  0  0  0  0  0  0  0  0  0  0
    8.4473   49.6499   53.4674 H   0  0  0  0  0  0  0  0  0  0  0  0
    5.9248   47.8451   52.8476 H   0  0  0  0  0  0  0  0  0  0  0  0
    4.2996   45.9905   52.5042 H   0  0  0  0  0  0  0  0  0  0  0  0
    0.9949   41.7565   53.0127 H   0  0  0  0  0  0  0  0  0  0  0  0
    2.5823   44.9964   53.9347 H   0  0  0  0  0  0  0  0  0  0  0  0
    1.4185   46.6294   55.4036 H   0  0  0  0  0  0  0  0  0  0  0  0
   -0.8506   46.1213   56.2999 H   0  0  0  0  0  0  0  0  0  0  0  0
   -1.9527   43.9607   55.7172 H   0  0  0  0  0  0  0  0  0  0  0  0
   -0.7905   42.3254   54.2473 H   0  0  0  0  0  0  0  0  0  0  0  0
    2.3619   40.7317   51.6640 H   0  0  0  0  0  0  0  0  0  0  0  0
    7.5870   43.2503   51.8927 H   0  0  0  0  0  0  0  0  0  0  0  0
    9.2079   45.1126   52.2372 H   0  0  0  0  0  0  0  0  0  0  0  0
  1  2  1  0
  2  3  1  0
  3  4  2  0
  4  5  1  0
  5  6  2  0
  6  7  1  0
  7  8  1  0
  8  9  2  0
  9 10  1  0
 10 11  1  0
 11 12  2  0
 12 13  1  0
 13 14  2  0
 14 15  1  0
 15 16  2  0
  9 17  1  0
 17 18  1  0
 18 19  2  0
 18 20  1  0
 20 21  1  0
 21 22  3  0
  6 23  1  0
 23 24  2  0
 24  3  1  0
 20  7  2  0
 16 11  1  0
  1 25  1  0
  1 26  1  0
  1 27  1  0
  4 28  1  0
  5 29  1  0
 10 30  1  0
 12 31  1  0
 13 32  1  0
 14 33  1  0
 15 34  1  0
 16 35  1  0
 17 36  1  0
 23 37  1  0
 24 38  1  0
M  END
>  <meeko>  (403) 
{"is_sidechain": false}

>  <CID>  (403) 
Z442313918

>  <pose_index>  (403) 
9

>  <docking_score>  (403) 
-7.365

>  <rmsd_to_best_selected>  (403) 
1.3256558160858198

>  <MWT>  (403) 
318.33599999999973

>  <TPSA>  (403) 
90.79999999999998

>  <logP>  (403) 
3.0607800000000003

>  <HBD>  (403) 
2

>  <HBA>  (403) 
5

>  <SMILES>  (403) 
[H]c1c([H])c([H])c(N([H])c2nc(-c3c([H])c([H])c(OC([H])([H])[H])c([H])c3[H])c(C#N)c(=O)n2[H])c([H])c1[H]

$$$$
Z442313918_pose10
     RDKit          3D

 38 40  0  0  0  0  0  0  0  0999 V2000
    9.0481   48.1232   53.6747 C   0  0  0  0  0  0  0  0  0  0  0  0
    7.9733   48.1483   52.7440 O   0  0  0  0  0  0  0  0  0  0  0  0
    7.2875   46.9786   52.5622 C   0  0  0  0  0  0  0  0  0  0  0  0
    5.9046   47.1269   52.4333 C   0  0  0  0  0  0  0  0  0  0  0  0
    5.0787   46.0153   52.2432 C   0  0  0  0  0  0  0  0  0  0  0  0
    5.6336   44.7319   52.1692 C   0  0  0  0  0  0  0  0  0  0  0  0
    4.7866   43.5308   51.9793 C   0  0  0  0  0  0  0  0  0  0  0  0
    3.5739   43.5763   52.6307 N   0  0  0  0  0  0  0  0  0  0  0  0
    2.7522   42.5813   52.5403 C   0  0  0  0  0  0  0  0  0  0  0  0
    1.5209   42.5011   53.1363 N   0  0  0  0  0  0  0  0  0  0  0  0
    0.8265   43.4534   53.9098 C   0  0  0  0  0  0  0  0  0  0  0  0
    0.9288   44.8376   53.7390 C   0  0  0  0  0  0  0  0  0  0  0  0
    0.2183   45.7253   54.5568 C   0  0  0  0  0  0  0  0  0  0  0  0
   -0.6065   45.2426   55.5656 C   0  0  0  0  0  0  0  0  0  0  0  0
   -0.7218   43.8710   55.7600 C   0  0  0  0  0  0  0  0  0  0  0  0
   -0.0111   42.9880   54.9401 C   0  0  0  0  0  0  0  0  0  0  0  0
    3.0972   41.4796   51.8030 N   0  0  0  0  0  0  0  0  0  0  0  0
    4.2836   41.3502   51.1394 C   0  0  0  0  0  0  0  0  0  0  0  0
    4.5362   40.3337   50.4995 O   0  0  0  0  0  0  0  0  0  0  0  0
    5.2151   42.4866   51.2472 C   0  0  0  0  0  0  0  0  0  0  0  0
    6.4770   42.4037   50.6055 C   0  0  0  0  0  0  0  0  0  0  0  0
    7.5008   42.3267   50.0623 N   0  0  0  0  0  0  0  0  0  0  0  0
    7.0195   44.5844   52.3152 C   0  0  0  0  0  0  0  0  0  0  0  0
    7.8428   45.7015   52.5062 C   0  0  0  0  0  0  0  0  0  0  0  0
    9.4840   49.1296   53.7587 H   0  0  0  0  0  0  0  0  0  0  0  0
    8.6740   47.8024   54.6582 H   0  0  0  0  0  0  0  0  0  0  0  0
    9.8176   47.4181   53.3273 H   0  0  0  0  0  0  0  0  0  0  0  0
    5.4596   48.1317   52.4820 H   0  0  0  0  0  0  0  0  0  0  0  0
    3.9907   46.1491   52.1516 H   0  0  0  0  0  0  0  0  0  0  0  0
    0.9996   41.6485   53.0036 H   0  0  0  0  0  0  0  0  0  0  0  0
    1.5798   45.2368   52.9472 H   0  0  0  0  0  0  0  0  0  0  0  0
    0.3137   46.8098   54.3998 H   0  0  0  0  0  0  0  0  0  0  0  0
   -1.1646   45.9413   56.2061 H   0  0  0  0  0  0  0  0  0  0  0  0
   -1.3709   43.4805   56.5575 H   0  0  0  0  0  0  0  0  0  0  0  0
   -0.1094   41.9048   55.1046 H   0  0  0  0  0  0  0  0  0  0  0  0
    2.4725   40.6941   51.7160 H   0  0  0  0  0  0  0  0  0  0  0  0
    7.4661   43.5798   52.2794 H   0  0  0  0  0  0  0  0  0  0  0  0
    8.9298   45.5705   52.6123 H   0  0  0  0  0  0  0  0  0  0  0  0
  1  2  1  0
  2  3  1  0
  3  4  2  0
  4  5  1  0
  5  6  2  0
  6  7  1  0
  7  8  1  0
  8  9  2  0
  9 10  1  0
 10 11  1  0
 11 12  2  0
 12 13  1  0
 13 14  2  0
 14 15  1  0
 15 16  2  0
  9 17  1  0
 17 18  1  0
 18 19  2  0
 18 20  1  0
 20 21  1  0
 21 22  3  0
  6 23  1  0
 23 24  2  0
 24  3  1  0
 20  7  2  0
 16 11  1  0
  1 25  1  0
  1 26  1  0
  1 27  1  0
  4 28  1  0
  5 29  1  0
 10 30  1  0
 12 31  1  0
 13 32  1  0
 14 33  1  0
 15 34  1  0
 16 35  1  0
 17 36  1  0
 23 37  1  0
 24 38  1  0
M  END
>  <meeko>  (404) 
{"is_sidechain": false}

>  <CID>  (404) 
Z442313918

>  <pose_index>  (404) 
10

>  <docking_score>  (404) 
-7.232

>  <rmsd_to_best_selected>  (404) 
1.3148590698188762

>  <MWT>  (404) 
318.33599999999973

>  <TPSA>  (404) 
90.79999999999998

>  <logP>  (404) 
3.0607800000000003

>  <HBD>  (404) 
2

>  <HBA>  (404) 
5

>  <SMILES>  (404) 
[H]c1c([H])c([H])c(N([H])c2nc(-c3c([H])c([H])c(OC([H])([H])[H])c([H])c3[H])c(C#N)c(=O)n2[H])c([H])c1[H]

$$$$
Z4521998795_pose2
     RDKit          3D

 41 44  0  0  0  0  0  0  0  0999 V2000
    5.4346   46.2439   55.5949 C   0  0  0  0  0  0  0  0  0  0  0  0
    5.3168   47.3866   54.6441 C   0  0  0  0  0  0  0  0  0  0  0  0
    5.0305   47.1833   53.1688 C   0  0  0  0  0  0  0  0  0  0  0  0
    4.6640   45.8254   52.6547 C   0  0  0  0  0  0  0  0  0  0  0  0
    4.0424   45.0972   53.4184 O   0  0  0  0  0  0  0  0  0  0  0  0
    5.0605   45.4940   51.3829 N   0  0  0  0  0  0  0  0  0  0  0  0
    4.8394   44.3233   50.6133 C   0  0  0  0  0  0  0  0  0  0  0  0
    3.4794   43.9634   50.4954 C   0  0  0  0  0  0  0  0  0  0  0  0
    3.0755   42.8362   49.7789 C   0  0  0  0  0  0  0  0  0  0  0  0
    4.0276   42.0349   49.1674 C   0  0  0  0  0  0  0  0  0  0  0  0
    5.3818   42.3691   49.2786 C   0  0  0  0  0  0  0  0  0  0  0  0
    6.4176   41.5006   48.6411 C   0  0  0  0  0  0  0  0  0  0  0  0
    6.0436   40.4891   48.0546 O   0  0  0  0  0  0  0  0  0  0  0  0
    7.7458   41.8551   48.7171 N   0  0  0  0  0  0  0  0  0  0  0  0
    8.0403   42.9021   49.4061 C   0  0  0  0  0  0  0  0  0  0  0  0
    7.1883   43.7066   50.0892 N   0  0  0  0  0  0  0  0  0  0  0  0
    5.8075   43.5110   49.9879 C   0  0  0  0  0  0  0  0  0  0  0  0
    6.3601   47.7659   53.6121 C   0  0  0  0  0  0  0  0  0  0  0  0
    7.6896   47.0859   53.4202 C   0  0  0  0  0  0  0  0  0  0  0  0
    8.0907   46.6506   52.1431 C   0  0  0  0  0  0  0  0  0  0  0  0
    9.3185   46.0176   51.9379 C   0  0  0  0  0  0  0  0  0  0  0  0
   10.1891   45.8259   53.0059 C   0  0  0  0  0  0  0  0  0  0  0  0
    9.8343   46.2811   54.2724 C   0  0  0  0  0  0  0  0  0  0  0  0
    8.6034   46.9121   54.4715 C   0  0  0  0  0  0  0  0  0  0  0  0
    4.4297   45.9046   55.8866 H   0  0  0  0  0  0  0  0  0  0  0  0
    5.9742   45.4172   55.1096 H   0  0  0  0  0  0  0  0  0  0  0  0
    5.9867   46.5669   56.4898 H   0  0  0  0  0  0  0  0  0  0  0  0
    4.8411   47.9211   55.4796 H   0  0  0  0  0  0  0  0  0  0  0  0
    4.3332   47.5139   52.3850 H   0  0  0  0  0  0  0  0  0  0  0  0
    5.6569   46.1732   50.9343 H   0  0  0  0  0  0  0  0  0  0  0  0
    2.7168   44.5890   50.9821 H   0  0  0  0  0  0  0  0  0  0  0  0
    2.0076   42.5847   49.6996 H   0  0  0  0  0  0  0  0  0  0  0  0
    3.7210   41.1440   48.5996 H   0  0  0  0  0  0  0  0  0  0  0  0
    9.1051   43.1755   49.4453 H   0  0  0  0  0  0  0  0  0  0  0  0
    7.5115   44.6042   50.4529 H   0  0  0  0  0  0  0  0  0  0  0  0
    6.9329   48.6789   53.3924 H   0  0  0  0  0  0  0  0  0  0  0  0
    7.4207   46.8129   51.2859 H   0  0  0  0  0  0  0  0  0  0  0  0
    9.5971   45.6706   50.9319 H   0  0  0  0  0  0  0  0  0  0  0  0
   11.1522   45.3177   52.8503 H   0  0  0  0  0  0  0  0  0  0  0  0
   10.5241   46.1439   55.1182 H   0  0  0  0  0  0  0  0  0  0  0  0
    8.3446   47.2810   55.4750 H   0  0  0  0  0  0  0  0  0  0  0  0
  1  2  1  0
  2  3  1  0
  3  4  1  0
  4  5  2  0
  4  6  1  0
  6  7  1  0
  7  8  2  0
  8  9  1  0
  9 10  2  0
 10 11  1  0
 11 12  1  0
 12 13  2  0
 12 14  1  0
 14 15  2  0
 15 16  1  0
 16 17  1  0
  3 18  1  0
 18 19  1  0
 19 20  2  0
 20 21  1  0
 21 22  2  0
 22 23  1  0
 23 24  2  0
 18  2  1  0
 24 19  1  0
 17  7  1  0
 17 11  2  0
  1 25  1  0
  1 26  1  0
  1 27  1  0
  2 28  1  0
  3 29  1  0
  6 30  1  0
  8 31  1  0
  9 32  1  0
 10 33  1  0
 15 34  1  0
 16 35  1  0
 18 36  1  0
 20 37  1  0
 21 38  1  0
 22 39  1  0
 23 40  1  0
 24 41  1  0
M  END
>  <meeko>  (405) 
{"is_sidechain": false}

>  <CID>  (405) 
Z4521998795

>  <pose_index>  (405) 
2

>  <docking_score>  (405) 
-9.538

>  <rmsd_to_best_selected>  (405) 
0.0

>  <MWT>  (405) 
319.36399999999975

>  <TPSA>  (405) 
74.85

>  <logP>  (405) 
2.9113000000000007

>  <HBD>  (405) 
2

>  <HBA>  (405) 
3

>  <SMILES>  (405) 
[H]c1c([H])c([H])c(C2([H])C([H])(C(=O)N([H])c3c([H])c([H])c([H])c4c(=O)nc([H])n([H])c34)C2([H])C([H])([H])[H])c([H])c1[H]

$$$$
Z4521998795_pose3
     RDKit          3D

 41 44  0  0  0  0  0  0  0  0999 V2000
    5.1678   45.6367   54.6257 C   0  0  0  0  0  0  0  0  0  0  0  0
    5.2604   47.0891   54.3007 C   0  0  0  0  0  0  0  0  0  0  0  0
    5.2538   47.5997   52.8735 C   0  0  0  0  0  0  0  0  0  0  0  0
    4.9582   46.6640   51.7419 C   0  0  0  0  0  0  0  0  0  0  0  0
    4.7191   47.1733   50.6539 O   0  0  0  0  0  0  0  0  0  0  0  0
    4.9606   45.3177   52.0079 N   0  0  0  0  0  0  0  0  0  0  0  0
    4.7588   44.2000   51.1589 C   0  0  0  0  0  0  0  0  0  0  0  0
    3.4234   43.7424   51.1209 C   0  0  0  0  0  0  0  0  0  0  0  0
    3.0411   42.6489   50.3431 C   0  0  0  0  0  0  0  0  0  0  0  0
    3.9932   41.9782   49.5891 C   0  0  0  0  0  0  0  0  0  0  0  0
    5.3230   42.4087   49.6188 C   0  0  0  0  0  0  0  0  0  0  0  0
    6.3595   41.6806   48.8266 C   0  0  0  0  0  0  0  0  0  0  0  0
    6.0107   40.6934   48.1864 O   0  0  0  0  0  0  0  0  0  0  0  0
    7.6614   42.1329   48.8263 N   0  0  0  0  0  0  0  0  0  0  0  0
    7.9372   43.1402   49.5783 C   0  0  0  0  0  0  0  0  0  0  0  0
    7.0912   43.8159   50.3953 N   0  0  0  0  0  0  0  0  0  0  0  0
    5.7251   43.5204   50.3894 C   0  0  0  0  0  0  0  0  0  0  0  0
    6.4894   47.7735   53.7378 C   0  0  0  0  0  0  0  0  0  0  0  0
    7.8140   47.1122   53.4667 C   0  0  0  0  0  0  0  0  0  0  0  0
    8.2427   46.8861   52.1454 C   0  0  0  0  0  0  0  0  0  0  0  0
    9.4665   46.2739   51.8663 C   0  0  0  0  0  0  0  0  0  0  0  0
   10.3055   45.8941   52.9087 C   0  0  0  0  0  0  0  0  0  0  0  0
    9.9255   46.1383   54.2235 C   0  0  0  0  0  0  0  0  0  0  0  0
    8.6973   46.7501   54.4959 C   0  0  0  0  0  0  0  0  0  0  0  0
    4.8438   45.5145   55.6697 H   0  0  0  0  0  0  0  0  0  0  0  0
    4.4380   45.1571   53.9567 H   0  0  0  0  0  0  0  0  0  0  0  0
    6.1533   45.1671   54.4902 H   0  0  0  0  0  0  0  0  0  0  0  0
    4.6478   47.2417   55.2014 H   0  0  0  0  0  0  0  0  0  0  0  0
    4.7259   48.3200   52.2312 H   0  0  0  0  0  0  0  0  0  0  0  0
    5.0712   45.0778   52.9823 H   0  0  0  0  0  0  0  0  0  0  0  0
    2.6629   44.2629   51.7215 H   0  0  0  0  0  0  0  0  0  0  0  0
    1.9913   42.3207   50.3278 H   0  0  0  0  0  0  0  0  0  0  0  0
    3.7040   41.1143   48.9727 H   0  0  0  0  0  0  0  0  0  0  0  0
    8.9786   43.4938   49.5559 H   0  0  0  0  0  0  0  0  0  0  0  0
    7.3794   44.7041   50.8091 H   0  0  0  0  0  0  0  0  0  0  0  0
    7.1163   48.6195   54.0559 H   0  0  0  0  0  0  0  0  0  0  0  0
    7.5975   47.1995   51.3114 H   0  0  0  0  0  0  0  0  0  0  0  0
    9.7665   46.0924   50.8237 H   0  0  0  0  0  0  0  0  0  0  0  0
   11.2657   45.4026   52.6935 H   0  0  0  0  0  0  0  0  0  0  0  0
   10.5913   45.8501   55.0504 H   0  0  0  0  0  0  0  0  0  0  0  0
    8.4174   46.9521   55.5404 H   0  0  0  0  0  0  0  0  0  0  0  0
  1  2  1  0
  2  3  1  0
  3  4  1  0
  4  5  2  0
  4  6  1  0
  6  7  1  0
  7  8  2  0
  8  9  1  0
  9 10  2  0
 10 11  1  0
 11 12  1  0
 12 13  2  0
 12 14  1  0
 14 15  2  0
 15 16  1  0
 16 17  1  0
  3 18  1  0
 18 19  1  0
 19 20  2  0
 20 21  1  0
 21 22  2  0
 22 23  1  0
 23 24  2  0
 18  2  1  0
 24 19  1  0
 17  7  1  0
 17 11  2  0
  1 25  1  0
  1 26  1  0
  1 27  1  0
  2 28  1  0
  3 29  1  0
  6 30  1  0
  8 31  1  0
  9 32  1  0
 10 33  1  0
 15 34  1  0
 16 35  1  0
 18 36  1  0
 20 37  1  0
 21 38  1  0
 22 39  1  0
 23 40  1  0
 24 41  1  0
M  END
>  <meeko>  (406) 
{"is_sidechain": false}

>  <CID>  (406) 
Z4521998795

>  <pose_index>  (406) 
3

>  <docking_score>  (406) 
-9.119

>  <rmsd_to_best_selected>  (406) 
0.9419227202035425

>  <MWT>  (406) 
319.36399999999975

>  <TPSA>  (406) 
74.85

>  <logP>  (406) 
2.9113000000000007

>  <HBD>  (406) 
2

>  <HBA>  (406) 
3

>  <SMILES>  (406) 
[H]c1c([H])c([H])c(C2([H])C([H])(C(=O)N([H])c3c([H])c([H])c([H])c4c(=O)nc([H])n([H])c34)C2([H])C([H])([H])[H])c([H])c1[H]

$$$$
Z4521998795_pose5
     RDKit          3D

 41 44  0  0  0  0  0  0  0  0999 V2000
    5.4906   45.2389   54.6240 C   0  0  0  0  0  0  0  0  0  0  0  0
    5.3279   46.7025   54.3883 C   0  0  0  0  0  0  0  0  0  0  0  0
    5.2650   47.2932   52.9931 C   0  0  0  0  0  0  0  0  0  0  0  0
    5.1719   46.3939   51.7999 C   0  0  0  0  0  0  0  0  0  0  0  0
    5.4904   46.8765   50.7201 O   0  0  0  0  0  0  0  0  0  0  0  0
    4.7259   45.1118   51.9986 N   0  0  0  0  0  0  0  0  0  0  0  0
    4.5649   44.0305   51.0942 C   0  0  0  0  0  0  0  0  0  0  0  0
    3.3117   43.3870   51.1881 C   0  0  0  0  0  0  0  0  0  0  0  0
    2.9802   42.2995   50.3798 C   0  0  0  0  0  0  0  0  0  0  0  0
    3.9027   41.8207   49.4607 C   0  0  0  0  0  0  0  0  0  0  0  0
    5.1535   42.4393   49.3573 C   0  0  0  0  0  0  0  0  0  0  0  0
    6.1629   41.9191   48.3864 C   0  0  0  0  0  0  0  0  0  0  0  0
    5.8681   40.9325   47.7170 O   0  0  0  0  0  0  0  0  0  0  0  0
    7.3778   42.5553   48.2580 N   0  0  0  0  0  0  0  0  0  0  0  0
    7.6131   43.5447   49.0472 C   0  0  0  0  0  0  0  0  0  0  0  0
    6.8016   44.0391   50.0160 N   0  0  0  0  0  0  0  0  0  0  0  0
    5.5013   43.5476   50.1577 C   0  0  0  0  0  0  0  0  0  0  0  0
    6.4272   47.6295   53.9110 C   0  0  0  0  0  0  0  0  0  0  0  0
    7.8558   47.2337   53.6495 C   0  0  0  0  0  0  0  0  0  0  0  0
    8.9058   47.8357   54.3673 C   0  0  0  0  0  0  0  0  0  0  0  0
   10.2399   47.4867   54.1448 C   0  0  0  0  0  0  0  0  0  0  0  0
   10.5543   46.5043   53.2105 C   0  0  0  0  0  0  0  0  0  0  0  0
    9.5338   45.8649   52.5140 C   0  0  0  0  0  0  0  0  0  0  0  0
    8.2012   46.2212   52.7402 C   0  0  0  0  0  0  0  0  0  0  0  0
    4.5635   44.8314   55.0534 H   0  0  0  0  0  0  0  0  0  0  0  0
    5.7049   44.7354   53.6697 H   0  0  0  0  0  0  0  0  0  0  0  0
    6.3233   45.0704   55.3226 H   0  0  0  0  0  0  0  0  0  0  0  0
    4.6757   46.6860   55.2739 H   0  0  0  0  0  0  0  0  0  0  0  0
    4.6321   47.9467   52.3747 H   0  0  0  0  0  0  0  0  0  0  0  0
    4.4045   44.9150   52.9347 H   0  0  0  0  0  0  0  0  0  0  0  0
    2.5761   43.7534   51.9193 H   0  0  0  0  0  0  0  0  0  0  0  0
    1.9924   41.8241   50.4705 H   0  0  0  0  0  0  0  0  0  0  0  0
    3.6531   40.9626   48.8193 H   0  0  0  0  0  0  0  0  0  0  0  0
    8.5836   44.0471   48.9219 H   0  0  0  0  0  0  0  0  0  0  0  0
    7.0205   44.9318   50.4596 H   0  0  0  0  0  0  0  0  0  0  0  0
    6.8830   48.5517   54.3005 H   0  0  0  0  0  0  0  0  0  0  0  0
    8.6701   48.6001   55.1224 H   0  0  0  0  0  0  0  0  0  0  0  0
   11.0412   47.9879   54.7075 H   0  0  0  0  0  0  0  0  0  0  0  0
   11.6043   46.2347   53.0237 H   0  0  0  0  0  0  0  0  0  0  0  0
    9.7758   45.0781   51.7843 H   0  0  0  0  0  0  0  0  0  0  0  0
    7.4045   45.6959   52.1930 H   0  0  0  0  0  0  0  0  0  0  0  0
  1  2  1  0
  2  3  1  0
  3  4  1  0
  4  5  2  0
  4  6  1  0
  6  7  1  0
  7  8  2  0
  8  9  1  0
  9 10  2  0
 10 11  1  0
 11 12  1  0
 12 13  2  0
 12 14  1  0
 14 15  2  0
 15 16  1  0
 16 17  1  0
  3 18  1  0
 18 19  1  0
 19 20  2  0
 20 21  1  0
 21 22  2  0
 22 23  1  0
 23 24  2  0
 18  2  1  0
 24 19  1  0
 17  7  1  0
 17 11  2  0
  1 25  1  0
  1 26  1  0
  1 27  1  0
  2 28  1  0
  3 29  1  0
  6 30  1  0
  8 31  1  0
  9 32  1  0
 10 33  1  0
 15 34  1  0
 16 35  1  0
 18 36  1  0
 20 37  1  0
 21 38  1  0
 22 39  1  0
 23 40  1  0
 24 41  1  0
M  END
>  <meeko>  (407) 
{"is_sidechain": false}

>  <CID>  (407) 
Z4521998795

>  <pose_index>  (407) 
5

>  <docking_score>  (407) 
-9.021

>  <rmsd_to_best_selected>  (407) 
1.1417089637841025

>  <MWT>  (407) 
319.36399999999975

>  <TPSA>  (407) 
74.85

>  <logP>  (407) 
2.9113000000000007

>  <HBD>  (407) 
2

>  <HBA>  (407) 
3

>  <SMILES>  (407) 
[H]c1c([H])c([H])c(C2([H])C([H])(C(=O)N([H])c3c([H])c([H])c([H])c4c(=O)nc([H])n([H])c34)C2([H])C([H])([H])[H])c([H])c1[H]

$$$$
Z4521998795_pose7
     RDKit          3D

 41 44  0  0  0  0  0  0  0  0999 V2000
    5.2805   45.3897   54.4643 C   0  0  0  0  0  0  0  0  0  0  0  0
    5.2751   46.8560   54.1898 C   0  0  0  0  0  0  0  0  0  0  0  0
    5.4381   47.4148   52.7899 C   0  0  0  0  0  0  0  0  0  0  0  0
    5.4183   46.4981   51.6073 C   0  0  0  0  0  0  0  0  0  0  0  0
    6.0452   46.8596   50.6183 O   0  0  0  0  0  0  0  0  0  0  0  0
    4.6929   45.3379   51.7090 N   0  0  0  0  0  0  0  0  0  0  0  0
    4.5123   44.2673   50.7951 C   0  0  0  0  0  0  0  0  0  0  0  0
    3.1595   43.9740   50.5181 C   0  0  0  0  0  0  0  0  0  0  0  0
    2.7922   42.9490   49.6460 C   0  0  0  0  0  0  0  0  0  0  0  0
    3.7742   42.1841   49.0342 C   0  0  0  0  0  0  0  0  0  0  0  0
    5.1199   42.4530   49.3016 C   0  0  0  0  0  0  0  0  0  0  0  0
    6.1867   41.6216   48.6639 C   0  0  0  0  0  0  0  0  0  0  0  0
    5.8407   40.6960   47.9361 O   0  0  0  0  0  0  0  0  0  0  0  0
    7.5117   41.9156   48.8969 N   0  0  0  0  0  0  0  0  0  0  0  0
    7.7694   42.8685   49.7229 C   0  0  0  0  0  0  0  0  0  0  0  0
    6.8806   43.6248   50.4148 N   0  0  0  0  0  0  0  0  0  0  0  0
    5.5104   43.4936   50.1704 C   0  0  0  0  0  0  0  0  0  0  0  0
    6.5006   47.6758   53.8422 C   0  0  0  0  0  0  0  0  0  0  0  0
    7.9116   47.1554   53.7703 C   0  0  0  0  0  0  0  0  0  0  0  0
    8.9665   47.8677   54.3719 C   0  0  0  0  0  0  0  0  0  0  0  0
   10.2840   47.4075   54.3195 C   0  0  0  0  0  0  0  0  0  0  0  0
   10.5744   46.2061   53.6823 C   0  0  0  0  0  0  0  0  0  0  0  0
    9.5465   45.4619   53.1119 C   0  0  0  0  0  0  0  0  0  0  0  0
    8.2303   45.9299   53.1662 C   0  0  0  0  0  0  0  0  0  0  0  0
    6.3149   45.0498   54.6205 H   0  0  0  0  0  0  0  0  0  0  0  0
    4.6865   45.1835   55.3669 H   0  0  0  0  0  0  0  0  0  0  0  0
    4.8441   44.8547   53.6080 H   0  0  0  0  0  0  0  0  0  0  0  0
    4.5187   46.9161   54.9861 H   0  0  0  0  0  0  0  0  0  0  0  0
    4.9455   48.1030   52.0872 H   0  0  0  0  0  0  0  0  0  0  0  0
    4.1510   45.2488   52.5557 H   0  0  0  0  0  0  0  0  0  0  0  0
    2.3729   44.5704   51.0035 H   0  0  0  0  0  0  0  0  0  0  0  0
    1.7295   42.7484   49.4447 H   0  0  0  0  0  0  0  0  0  0  0  0
    3.4968   41.3732   48.3447 H   0  0  0  0  0  0  0  0  0  0  0  0
    8.8331   43.0959   49.8868 H   0  0  0  0  0  0  0  0  0  0  0  0
    7.1937   44.4638   50.9052 H   0  0  0  0  0  0  0  0  0  0  0  0
    6.9816   48.5666   54.2725 H   0  0  0  0  0  0  0  0  0  0  0  0
    8.7476   48.8097   54.8959 H   0  0  0  0  0  0  0  0  0  0  0  0
   11.0912   47.9948   54.7817 H   0  0  0  0  0  0  0  0  0  0  0  0
   11.6124   45.8457   53.6296 H   0  0  0  0  0  0  0  0  0  0  0  0
    9.7697   44.5047   52.6178 H   0  0  0  0  0  0  0  0  0  0  0  0
    7.4258   45.3232   52.7251 H   0  0  0  0  0  0  0  0  0  0  0  0
  1  2  1  0
  2  3  1  0
  3  4  1  0
  4  5  2  0
  4  6  1  0
  6  7  1  0
  7  8  2  0
  8  9  1  0
  9 10  2  0
 10 11  1  0
 11 12  1  0
 12 13  2  0
 12 14  1  0
 14 15  2  0
 15 16  1  0
 16 17  1  0
  3 18  1  0
 18 19  1  0
 19 20  2  0
 20 21  1  0
 21 22  2  0
 22 23  1  0
 23 24  2  0
 18  2  1  0
 24 19  1  0
 17  7  1  0
 17 11  2  0
  1 25  1  0
  1 26  1  0
  1 27  1  0
  2 28  1  0
  3 29  1  0
  6 30  1  0
  8 31  1  0
  9 32  1  0
 10 33  1  0
 15 34  1  0
 16 35  1  0
 18 36  1  0
 20 37  1  0
 21 38  1  0
 22 39  1  0
 23 40  1  0
 24 41  1  0
M  END
>  <meeko>  (408) 
{"is_sidechain": false}

>  <CID>  (408) 
Z4521998795

>  <pose_index>  (408) 
7

>  <docking_score>  (408) 
-8.857

>  <rmsd_to_best_selected>  (408) 
1.2506013125632514

>  <MWT>  (408) 
319.36399999999975

>  <TPSA>  (408) 
74.85

>  <logP>  (408) 
2.9113000000000007

>  <HBD>  (408) 
2

>  <HBA>  (408) 
3

>  <SMILES>  (408) 
[H]c1c([H])c([H])c(C2([H])C([H])(C(=O)N([H])c3c([H])c([H])c([H])c4c(=O)nc([H])n([H])c34)C2([H])C([H])([H])[H])c([H])c1[H]

$$$$
Z4521998795_pose8
     RDKit          3D

 41 44  0  0  0  0  0  0  0  0999 V2000
    4.8090   46.4331   54.9012 C   0  0  0  0  0  0  0  0  0  0  0  0
    5.2056   47.6848   54.1938 C   0  0  0  0  0  0  0  0  0  0  0  0
    5.2320   47.7822   52.6811 C   0  0  0  0  0  0  0  0  0  0  0  0
    4.6711   46.6740   51.8453 C   0  0  0  0  0  0  0  0  0  0  0  0
    3.5878   46.8803   51.3116 O   0  0  0  0  0  0  0  0  0  0  0  0
    5.3972   45.5126   51.7522 N   0  0  0  0  0  0  0  0  0  0  0  0
    5.1577   44.3198   51.0233 C   0  0  0  0  0  0  0  0  0  0  0  0
    3.8513   43.8056   51.1802 C   0  0  0  0  0  0  0  0  0  0  0  0
    3.4399   42.6361   50.5413 C   0  0  0  0  0  0  0  0  0  0  0  0
    4.3317   41.9436   49.7348 C   0  0  0  0  0  0  0  0  0  0  0  0
    5.6319   42.4322   49.5728 C   0  0  0  0  0  0  0  0  0  0  0  0
    6.6068   41.6841   48.7222 C   0  0  0  0  0  0  0  0  0  0  0  0
    6.2385   40.6331   48.2066 O   0  0  0  0  0  0  0  0  0  0  0  0
    7.8743   42.1894   48.5309 N   0  0  0  0  0  0  0  0  0  0  0  0
    8.1829   43.2670   49.1636 C   0  0  0  0  0  0  0  0  0  0  0  0
    7.4027   43.9725   50.0201 N   0  0  0  0  0  0  0  0  0  0  0  0
    6.0626   43.6203   50.1999 C   0  0  0  0  0  0  0  0  0  0  0  0
    6.5221   47.8918   53.4728 C   0  0  0  0  0  0  0  0  0  0  0  0
    7.6481   46.8950   53.4014 C   0  0  0  0  0  0  0  0  0  0  0  0
    8.4747   46.8321   52.2631 C   0  0  0  0  0  0  0  0  0  0  0  0
    9.5258   45.9169   52.1717 C   0  0  0  0  0  0  0  0  0  0  0  0
    9.7899   45.0546   53.2304 C   0  0  0  0  0  0  0  0  0  0  0  0
    9.0137   45.1201   54.3826 C   0  0  0  0  0  0  0  0  0  0  0  0
    7.9616   46.0374   54.4671 C   0  0  0  0  0  0  0  0  0  0  0  0
    5.3154   46.3870   55.8766 H   0  0  0  0  0  0  0  0  0  0  0  0
    3.7196   46.4271   55.0530 H   0  0  0  0  0  0  0  0  0  0  0  0
    5.0996   45.5619   54.2957 H   0  0  0  0  0  0  0  0  0  0  0  0
    4.6958   48.2094   55.0153 H   0  0  0  0  0  0  0  0  0  0  0  0
    4.8421   48.4056   51.8629 H   0  0  0  0  0  0  0  0  0  0  0  0
    6.2146   45.4752   52.3427 H   0  0  0  0  0  0  0  0  0  0  0  0
    3.1389   44.3425   51.8238 H   0  0  0  0  0  0  0  0  0  0  0  0
    2.4134   42.2645   50.6762 H   0  0  0  0  0  0  0  0  0  0  0  0
    4.0188   41.0190   49.2277 H   0  0  0  0  0  0  0  0  0  0  0  0
    9.1951   43.6610   48.9898 H   0  0  0  0  0  0  0  0  0  0  0  0
    7.6906   44.9040   50.3257 H   0  0  0  0  0  0  0  0  0  0  0  0
    7.3389   48.6244   53.5513 H   0  0  0  0  0  0  0  0  0  0  0  0
    8.2882   47.5205   51.4257 H   0  0  0  0  0  0  0  0  0  0  0  0
   10.1443   45.8781   51.2628 H   0  0  0  0  0  0  0  0  0  0  0  0
   10.6090   44.3241   53.1568 H   0  0  0  0  0  0  0  0  0  0  0  0
    9.2276   44.4498   55.2281 H   0  0  0  0  0  0  0  0  0  0  0  0
    7.3659   46.0879   55.3905 H   0  0  0  0  0  0  0  0  0  0  0  0
  1  2  1  0
  2  3  1  0
  3  4  1  0
  4  5  2  0
  4  6  1  0
  6  7  1  0
  7  8  2  0
  8  9  1  0
  9 10  2  0
 10 11  1  0
 11 12  1  0
 12 13  2  0
 12 14  1  0
 14 15  2  0
 15 16  1  0
 16 17  1  0
  3 18  1  0
 18 19  1  0
 19 20  2  0
 20 21  1  0
 21 22  2  0
 22 23  1  0
 23 24  2  0
 18  2  1  0
 24 19  1  0
 17  7  1  0
 17 11  2  0
  1 25  1  0
  1 26  1  0
  1 27  1  0
  2 28  1  0
  3 29  1  0
  6 30  1  0
  8 31  1  0
  9 32  1  0
 10 33  1  0
 15 34  1  0
 16 35  1  0
 18 36  1  0
 20 37  1  0
 21 38  1  0
 22 39  1  0
 23 40  1  0
 24 41  1  0
M  END
>  <meeko>  (409) 
{"is_sidechain": false}

>  <CID>  (409) 
Z4521998795

>  <pose_index>  (409) 
8

>  <docking_score>  (409) 
-8.556

>  <rmsd_to_best_selected>  (409) 
0.93004244819312

>  <MWT>  (409) 
319.36399999999975

>  <TPSA>  (409) 
74.85

>  <logP>  (409) 
2.9113000000000007

>  <HBD>  (409) 
2

>  <HBA>  (409) 
3

>  <SMILES>  (409) 
[H]c1c([H])c([H])c(C2([H])C([H])(C(=O)N([H])c3c([H])c([H])c([H])c4c(=O)nc([H])n([H])c34)C2([H])C([H])([H])[H])c([H])c1[H]

$$$$
Z4521998795_pose10
     RDKit          3D

 41 44  0  0  0  0  0  0  0  0999 V2000
    4.9738   46.0980   54.2638 C   0  0  0  0  0  0  0  0  0  0  0  0
    5.2770   47.4501   53.7107 C   0  0  0  0  0  0  0  0  0  0  0  0
    5.6701   47.6595   52.2618 C   0  0  0  0  0  0  0  0  0  0  0  0
    5.5783   46.5275   51.2865 C   0  0  0  0  0  0  0  0  0  0  0  0
    6.1220   46.6895   50.2010 O   0  0  0  0  0  0  0  0  0  0  0  0
    4.8845   45.4065   51.6696 N   0  0  0  0  0  0  0  0  0  0  0  0
    4.6556   44.1772   51.0004 C   0  0  0  0  0  0  0  0  0  0  0  0
    3.3427   43.6802   51.1490 C   0  0  0  0  0  0  0  0  0  0  0  0
    2.9393   42.4793   50.5639 C   0  0  0  0  0  0  0  0  0  0  0  0
    3.8466   41.7398   49.8199 C   0  0  0  0  0  0  0  0  0  0  0  0
    5.1552   42.2111   49.6667 C   0  0  0  0  0  0  0  0  0  0  0  0
    6.1470   41.4121   48.8853 C   0  0  0  0  0  0  0  0  0  0  0  0
    5.7848   40.3362   48.4173 O   0  0  0  0  0  0  0  0  0  0  0  0
    7.4228   41.8983   48.7014 N   0  0  0  0  0  0  0  0  0  0  0  0
    7.7224   43.0072   49.2828 C   0  0  0  0  0  0  0  0  0  0  0  0
    6.9243   43.7633   50.0779 N   0  0  0  0  0  0  0  0  0  0  0  0
    5.5769   43.4292   50.2409 C   0  0  0  0  0  0  0  0  0  0  0  0
    6.6637   47.9548   53.3698 C   0  0  0  0  0  0  0  0  0  0  0  0
    7.9485   47.1982   53.5796 C   0  0  0  0  0  0  0  0  0  0  0  0
    8.1322   45.9286   52.9996 C   0  0  0  0  0  0  0  0  0  0  0  0
    9.3141   45.2066   53.1801 C   0  0  0  0  0  0  0  0  0  0  0  0
   10.3530   45.7491   53.9288 C   0  0  0  0  0  0  0  0  0  0  0  0
   10.2137   47.0172   54.4816 C   0  0  0  0  0  0  0  0  0  0  0  0
    9.0277   47.7341   54.3000 C   0  0  0  0  0  0  0  0  0  0  0  0
    3.8839   45.9632   54.3258 H   0  0  0  0  0  0  0  0  0  0  0  0
    5.4017   45.3279   53.6051 H   0  0  0  0  0  0  0  0  0  0  0  0
    5.4123   46.0060   55.2684 H   0  0  0  0  0  0  0  0  0  0  0  0
    4.4781   47.8077   54.3769 H   0  0  0  0  0  0  0  0  0  0  0  0
    5.3857   48.2548   51.3816 H   0  0  0  0  0  0  0  0  0  0  0  0
    4.4093   45.4845   52.5570 H   0  0  0  0  0  0  0  0  0  0  0  0
    2.6172   44.2558   51.7427 H   0  0  0  0  0  0  0  0  0  0  0  0
    1.9072   42.1210   50.6921 H   0  0  0  0  0  0  0  0  0  0  0  0
    3.5403   40.7915   49.3544 H   0  0  0  0  0  0  0  0  0  0  0  0
    8.7420   43.3847   49.1159 H   0  0  0  0  0  0  0  0  0  0  0  0
    7.2107   44.7079   50.3418 H   0  0  0  0  0  0  0  0  0  0  0  0
    7.2671   48.8215   53.6775 H   0  0  0  0  0  0  0  0  0  0  0  0
    7.3259   45.4951   52.3897 H   0  0  0  0  0  0  0  0  0  0  0  0
    9.4233   44.2088   52.7301 H   0  0  0  0  0  0  0  0  0  0  0  0
   11.2802   45.1778   54.0829 H   0  0  0  0  0  0  0  0  0  0  0  0
   11.0379   47.4568   55.0626 H   0  0  0  0  0  0  0  0  0  0  0  0
    8.9378   48.7418   54.7317 H   0  0  0  0  0  0  0  0  0  0  0  0
  1  2  1  0
  2  3  1  0
  3  4  1  0
  4  5  2  0
  4  6  1  0
  6  7  1  0
  7  8  2  0
  8  9  1  0
  9 10  2  0
 10 11  1  0
 11 12  1  0
 12 13  2  0
 12 14  1  0
 14 15  2  0
 15 16  1  0
 16 17  1  0
  3 18  1  0
 18 19  1  0
 19 20  2  0
 20 21  1  0
 21 22  2  0
 22 23  1  0
 23 24  2  0
 18  2  1  0
 24 19  1  0
 17  7  1  0
 17 11  2  0
  1 25  1  0
  1 26  1  0
  1 27  1  0
  2 28  1  0
  3 29  1  0
  6 30  1  0
  8 31  1  0
  9 32  1  0
 10 33  1  0
 15 34  1  0
 16 35  1  0
 18 36  1  0
 20 37  1  0
 21 38  1  0
 22 39  1  0
 23 40  1  0
 24 41  1  0
M  END
>  <meeko>  (410) 
{"is_sidechain": false}

>  <CID>  (410) 
Z4521998795

>  <pose_index>  (410) 
10

>  <docking_score>  (410) 
-8.375

>  <rmsd_to_best_selected>  (410) 
1.2162125060909226

>  <MWT>  (410) 
319.36399999999975

>  <TPSA>  (410) 
74.85

>  <logP>  (410) 
2.9113000000000007

>  <HBD>  (410) 
2

>  <HBA>  (410) 
3

>  <SMILES>  (410) 
[H]c1c([H])c([H])c(C2([H])C([H])(C(=O)N([H])c3c([H])c([H])c([H])c4c(=O)nc([H])n([H])c34)C2([H])C([H])([H])[H])c([H])c1[H]

$$$$
Z48852930_pose1
     RDKit          3D

 41 43  0  0  0  0  0  0  0  0999 V2000
    3.3210   46.4240   51.0340 C   0  0  0  0  0  0  0  0  0  0  0  0
    2.9480   46.0320   52.4200 C   0  0  0  0  0  0  0  0  0  0  0  0
    1.6090   46.1090   52.7690 N   0  0  0  0  0  0  0  0  0  0  0  0
    1.4140   45.6710   53.9900 C   0  0  0  0  0  0  0  0  0  0  0  0
    0.1710   45.6660   54.5290 N   0  0  0  0  0  0  0  0  0  0  0  0
   -0.2310   44.6960   55.5400 C   0  0  0  0  0  0  0  0  0  0  0  0
   -0.4740   45.3270   56.9180 C   0  0  0  0  0  0  0  0  0  0  0  0
   -1.1810   46.6740   56.8720 C   0  0  0  0  0  0  0  0  0  0  0  0
   -0.7400   47.2890   58.1780 C   0  0  0  0  0  0  0  0  0  0  0  0
    0.6970   46.8240   58.2750 C   0  0  0  0  0  0  0  0  0  0  0  0
    0.7850   45.5720   57.5800 O   0  0  0  0  0  0  0  0  0  0  0  0
    2.8420   45.1600   54.7990 S   0  0  0  0  0  0  0  0  0  0  0  0
    3.7800   45.5740   53.4270 C   0  0  0  0  0  0  0  0  0  0  0  0
    5.2200   45.3900   53.4640 C   0  0  0  0  0  0  0  0  0  0  0  0
    5.7330   44.3030   53.7060 O   0  0  0  0  0  0  0  0  0  0  0  0
    5.9220   46.5620   53.2300 N   0  0  0  0  0  0  0  0  0  0  0  0
    7.3190   46.7330   53.1390 C   0  0  0  0  0  0  0  0  0  0  0  0
    7.9900   47.1210   54.3070 C   0  0  0  0  0  0  0  0  0  0  0  0
    9.3730   47.3200   54.3040 C   0  0  0  0  0  0  0  0  0  0  0  0
   10.1000   47.1370   53.1310 C   0  0  0  0  0  0  0  0  0  0  0  0
    9.4420   46.7560   51.9640 C   0  0  0  0  0  0  0  0  0  0  0  0
    8.0560   46.5560   51.9680 C   0  0  0  0  0  0  0  0  0  0  0  0
    4.0789   47.2205   51.0696 H   0  0  0  0  0  0  0  0  0  0  0  0
    3.7306   45.5515   50.5039 H   0  0  0  0  0  0  0  0  0  0  0  0
    2.4293   46.7898   50.5039 H   0  0  0  0  0  0  0  0  0  0  0  0
   -0.5530   45.8810   53.8510 H   0  0  0  0  0  0  0  0  0  0  0  0
   -1.1606   44.2102   55.2087 H   0  0  0  0  0  0  0  0  0  0  0  0
    0.5937   43.9764   55.6499 H   0  0  0  0  0  0  0  0  0  0  0  0
   -1.1111   44.6024   57.4463 H   0  0  0  0  0  0  0  0  0  0  0  0
   -0.8476   47.2738   56.0123 H   0  0  0  0  0  0  0  0  0  0  0  0
   -2.2725   46.6043   56.7546 H   0  0  0  0  0  0  0  0  0  0  0  0
   -0.8036   48.3867   58.1446 H   0  0  0  0  0  0  0  0  0  0  0  0
   -1.3601   46.9961   59.0381 H   0  0  0  0  0  0  0  0  0  0  0  0
    1.3646   47.5626   57.8072 H   0  0  0  0  0  0  0  0  0  0  0  0
    1.0005   46.7096   59.3261 H   0  0  0  0  0  0  0  0  0  0  0  0
    5.3750   47.4120   53.1900 H   0  0  0  0  0  0  0  0  0  0  0  0
    7.4212   47.2705   55.2366 H   0  0  0  0  0  0  0  0  0  0  0  0
    9.8873   47.6213   55.2285 H   0  0  0  0  0  0  0  0  0  0  0  0
   11.1889   47.2926   53.1258 H   0  0  0  0  0  0  0  0  0  0  0  0
   10.0135   46.6116   51.0353 H   0  0  0  0  0  0  0  0  0  0  0  0
    7.5448   46.2572   51.0410 H   0  0  0  0  0  0  0  0  0  0  0  0
  1  2  1  0
  2  3  1  0
  3  4  2  0
  4  5  1  0
  5  6  1  0
  6  7  1  0
  7  8  1  0
  8  9  1  0
  9 10  1  0
 10 11  1  0
  4 12  1  0
 12 13  1  0
 13 14  1  0
 14 15  2  0
 14 16  1  0
 16 17  1  0
 17 18  2  0
 18 19  1  0
 19 20  2  0
 20 21  1  0
 21 22  2  0
 13  2  2  0
 22 17  1  0
 11  7  1  0
  1 23  1  0
  1 24  1  0
  1 25  1  0
  5 26  1  0
  6 27  1  0
  6 28  1  0
  7 29  1  0
  8 30  1  0
  8 31  1  0
  9 32  1  0
  9 33  1  0
 10 34  1  0
 10 35  1  0
 16 36  1  0
 18 37  1  0
 19 38  1  0
 20 39  1  0
 21 40  1  0
 22 41  1  0
M  END
>  <meeko>  (411) 
{"is_sidechain": false}

>  <CID>  (411) 
Z48852930

>  <pose_index>  (411) 
1

>  <docking_score>  (411) 
-7.891

>  <rmsd_to_best_selected>  (411) 
0.0

>  <MWT>  (411) 
317.4139999999997

>  <TPSA>  (411) 
63.25000000000001

>  <logP>  (411) 
3.2947200000000016

>  <HBD>  (411) 
2

>  <HBA>  (411) 
5

>  <SMILES>  (411) 
[H]c1c([H])c([H])c(N([H])C(=O)c2sc(N([H])C([H])([H])C3([H])OC([H])([H])C([H])([H])C3([H])[H])nc2C([H])([H])[H])c([H])c1[H]

$$$$
Z48852930_pose2
     RDKit          3D

 41 43  0  0  0  0  0  0  0  0999 V2000
    3.2614   46.4114   50.9870 C   0  0  0  0  0  0  0  0  0  0  0  0
    2.9124   46.0111   52.3770 C   0  0  0  0  0  0  0  0  0  0  0  0
    1.5789   46.0820   52.7486 N   0  0  0  0  0  0  0  0  0  0  0  0
    1.4054   45.6378   53.9706 C   0  0  0  0  0  0  0  0  0  0  0  0
    0.1731   45.6260   54.5298 N   0  0  0  0  0  0  0  0  0  0  0  0
   -0.1971   44.6774   55.5730 C   0  0  0  0  0  0  0  0  0  0  0  0
   -0.5289   45.3510   56.9116 C   0  0  0  0  0  0  0  0  0  0  0  0
   -0.9993   46.7933   56.7841 C   0  0  0  0  0  0  0  0  0  0  0  0
   -0.6546   47.3418   58.1473 C   0  0  0  0  0  0  0  0  0  0  0  0
    0.6619   46.6562   58.4406 C   0  0  0  0  0  0  0  0  0  0  0  0
    0.6474   45.3992   57.7471 O   0  0  0  0  0  0  0  0  0  0  0  0
    2.8481   45.1264   54.7529 S   0  0  0  0  0  0  0  0  0  0  0  0
    3.7627   45.5503   53.3671 C   0  0  0  0  0  0  0  0  0  0  0  0
    5.2027   45.3701   53.3792 C   0  0  0  0  0  0  0  0  0  0  0  0
    5.7226   44.2688   53.5251 O   0  0  0  0  0  0  0  0  0  0  0  0
    5.8999   46.5611   53.2413 N   0  0  0  0  0  0  0  0  0  0  0  0
    7.2948   46.7450   53.1572 C   0  0  0  0  0  0  0  0  0  0  0  0
    7.9476   47.2046   54.3088 C   0  0  0  0  0  0  0  0  0  0  0  0
    9.3286   47.4215   54.3095 C   0  0  0  0  0  0  0  0  0  0  0  0
   10.0703   47.1846   53.1566 C   0  0  0  0  0  0  0  0  0  0  0  0
    9.4311   46.7323   52.0044 C   0  0  0  0  0  0  0  0  0  0  0  0
    8.0478   46.5152   52.0039 C   0  0  0  0  0  0  0  0  0  0  0  0
    3.9164   47.2948   51.0134 H   0  0  0  0  0  0  0  0  0  0  0  0
    3.7836   45.5825   50.4869 H   0  0  0  0  0  0  0  0  0  0  0  0
    2.3421   46.6530   50.4333 H   0  0  0  0  0  0  0  0  0  0  0  0
   -0.5663   45.8107   53.8580 H   0  0  0  0  0  0  0  0  0  0  0  0
   -1.0802   44.1144   55.2364 H   0  0  0  0  0  0  0  0  0  0  0  0
    0.6701   44.0223   55.7424 H   0  0  0  0  0  0  0  0  0  0  0  0
   -1.3406   44.7417   57.3356 H   0  0  0  0  0  0  0  0  0  0  0  0
   -0.4569   47.3243   55.9880 H   0  0  0  0  0  0  0  0  0  0  0  0
   -2.0603   46.8974   56.5131 H   0  0  0  0  0  0  0  0  0  0  0  0
   -0.5381   48.4353   58.1201 H   0  0  0  0  0  0  0  0  0  0  0  0
   -1.4285   47.1581   58.9072 H   0  0  0  0  0  0  0  0  0  0  0  0
    1.4976   47.2752   58.0821 H   0  0  0  0  0  0  0  0  0  0  0  0
    0.7920   46.5049   59.5223 H   0  0  0  0  0  0  0  0  0  0  0  0
    5.3493   47.4081   53.2768 H   0  0  0  0  0  0  0  0  0  0  0  0
    7.3667   47.3968   55.2229 H   0  0  0  0  0  0  0  0  0  0  0  0
    9.8288   47.7795   55.2215 H   0  0  0  0  0  0  0  0  0  0  0  0
   11.1573   47.3537   53.1547 H   0  0  0  0  0  0  0  0  0  0  0  0
   10.0154   46.5449   51.0914 H   0  0  0  0  0  0  0  0  0  0  0  0
    7.5509   46.1612   51.0886 H   0  0  0  0  0  0  0  0  0  0  0  0
  1  2  1  0
  2  3  1  0
  3  4  2  0
  4  5  1  0
  5  6  1  0
  6  7  1  0
  7  8  1  0
  8  9  1  0
  9 10  1  0
 10 11  1  0
  4 12  1  0
 12 13  1  0
 13 14  1  0
 14 15  2  0
 14 16  1  0
 16 17  1  0
 17 18  2  0
 18 19  1  0
 19 20  2  0
 20 21  1  0
 21 22  2  0
 13  2  2  0
 22 17  1  0
 11  7  1  0
  1 23  1  0
  1 24  1  0
  1 25  1  0
  5 26  1  0
  6 27  1  0
  6 28  1  0
  7 29  1  0
  8 30  1  0
  8 31  1  0
  9 32  1  0
  9 33  1  0
 10 34  1  0
 10 35  1  0
 16 36  1  0
 18 37  1  0
 19 38  1  0
 20 39  1  0
 21 40  1  0
 22 41  1  0
M  END
>  <meeko>  (412) 
{"is_sidechain": false}

>  <CID>  (412) 
Z48852930

>  <pose_index>  (412) 
2

>  <docking_score>  (412) 
-7.825

>  <rmsd_to_best_selected>  (412) 
0.1808847044987116

>  <MWT>  (412) 
317.4139999999997

>  <TPSA>  (412) 
63.25000000000001

>  <logP>  (412) 
3.2947200000000016

>  <HBD>  (412) 
2

>  <HBA>  (412) 
5

>  <SMILES>  (412) 
[H]c1c([H])c([H])c(N([H])C(=O)c2sc(N([H])C([H])([H])C3([H])OC([H])([H])C([H])([H])C3([H])[H])nc2C([H])([H])[H])c([H])c1[H]

$$$$
Z48852930_pose3
     RDKit          3D

 41 43  0  0  0  0  0  0  0  0999 V2000
    2.5409   46.7901   50.5039 C   0  0  0  0  0  0  0  0  0  0  0  0
    2.5761   46.4918   51.9604 C   0  0  0  0  0  0  0  0  0  0  0  0
    1.4033   46.0512   52.5529 N   0  0  0  0  0  0  0  0  0  0  0  0
    1.5942   45.7612   53.8188 C   0  0  0  0  0  0  0  0  0  0  0  0
    0.5696   45.3171   54.5847 N   0  0  0  0  0  0  0  0  0  0  0  0
    0.7803   44.7599   55.9144 C   0  0  0  0  0  0  0  0  0  0  0  0
   -0.2124   45.2916   56.9572 C   0  0  0  0  0  0  0  0  0  0  0  0
   -0.6090   46.7471   56.7541 C   0  0  0  0  0  0  0  0  0  0  0  0
   -1.0275   47.1413   58.1489 C   0  0  0  0  0  0  0  0  0  0  0  0
   -0.0165   46.4051   59.0011 C   0  0  0  0  0  0  0  0  0  0  0  0
    0.3732   45.2299   58.2752 O   0  0  0  0  0  0  0  0  0  0  0  0
    3.1996   46.0227   54.3742 S   0  0  0  0  0  0  0  0  0  0  0  0
    3.6576   46.5806   52.8205 C   0  0  0  0  0  0  0  0  0  0  0  0
    5.0217   47.0242   52.5943 C   0  0  0  0  0  0  0  0  0  0  0  0
    5.2900   47.9532   51.8403 O   0  0  0  0  0  0  0  0  0  0  0  0
    5.9578   46.2739   53.2895 N   0  0  0  0  0  0  0  0  0  0  0  0
    7.3543   46.4630   53.3438 C   0  0  0  0  0  0  0  0  0  0  0  0
    8.1492   45.5417   52.6480 C   0  0  0  0  0  0  0  0  0  0  0  0
    9.5418   45.6504   52.6561 C   0  0  0  0  0  0  0  0  0  0  0  0
   10.1555   46.6810   53.3616 C   0  0  0  0  0  0  0  0  0  0  0  0
    9.3754   47.5987   54.0599 C   0  0  0  0  0  0  0  0  0  0  0  0
    7.9796   47.4900   54.0527 C   0  0  0  0  0  0  0  0  0  0  0  0
    2.7991   47.8467   50.3396 H   0  0  0  0  0  0  0  0  0  0  0  0
    3.2665   46.1498   49.9808 H   0  0  0  0  0  0  0  0  0  0  0  0
    1.5312   46.5945   50.1138 H   0  0  0  0  0  0  0  0  0  0  0  0
   -0.1479   44.8413   54.0458 H   0  0  0  0  0  0  0  0  0  0  0  0
    0.6739   43.6666   55.8561 H   0  0  0  0  0  0  0  0  0  0  0  0
    1.7874   45.0605   56.2388 H   0  0  0  0  0  0  0  0  0  0  0  0
   -1.1021   44.6546   56.8447 H   0  0  0  0  0  0  0  0  0  0  0  0
    0.2416   47.3504   56.4040 H   0  0  0  0  0  0  0  0  0  0  0  0
   -1.3881   46.8978   55.9923 H   0  0  0  0  0  0  0  0  0  0  0  0
   -0.9565   48.2293   58.2949 H   0  0  0  0  0  0  0  0  0  0  0  0
   -2.0723   46.8918   58.3855 H   0  0  0  0  0  0  0  0  0  0  0  0
    0.8602   47.0442   59.1827 H   0  0  0  0  0  0  0  0  0  0  0  0
   -0.4487   46.1369   59.9764 H   0  0  0  0  0  0  0  0  0  0  0  0
    5.6109   45.4487   53.7589 H   0  0  0  0  0  0  0  0  0  0  0  0
    7.6709   44.7238   52.0893 H   0  0  0  0  0  0  0  0  0  0  0  0
   10.1535   44.9212   52.1047 H   0  0  0  0  0  0  0  0  0  0  0  0
   11.2518   46.7703   53.3675 H   0  0  0  0  0  0  0  0  0  0  0  0
    9.8580   48.4131   54.6201 H   0  0  0  0  0  0  0  0  0  0  0  0
    7.3719   48.2186   54.6092 H   0  0  0  0  0  0  0  0  0  0  0  0
  1  2  1  0
  2  3  1  0
  3  4  2  0
  4  5  1  0
  5  6  1  0
  6  7  1  0
  7  8  1  0
  8  9  1  0
  9 10  1  0
 10 11  1  0
  4 12  1  0
 12 13  1  0
 13 14  1  0
 14 15  2  0
 14 16  1  0
 16 17  1  0
 17 18  2  0
 18 19  1  0
 19 20  2  0
 20 21  1  0
 21 22  2  0
 13  2  2  0
 22 17  1  0
 11  7  1  0
  1 23  1  0
  1 24  1  0
  1 25  1  0
  5 26  1  0
  6 27  1  0
  6 28  1  0
  7 29  1  0
  8 30  1  0
  8 31  1  0
  9 32  1  0
  9 33  1  0
 10 34  1  0
 10 35  1  0
 16 36  1  0
 18 37  1  0
 19 38  1  0
 20 39  1  0
 21 40  1  0
 22 41  1  0
M  END
>  <meeko>  (413) 
{"is_sidechain": false}

>  <CID>  (413) 
Z48852930

>  <pose_index>  (413) 
3

>  <docking_score>  (413) 
-7.696

>  <rmsd_to_best_selected>  (413) 
1.2985820571138114

>  <MWT>  (413) 
317.4139999999997

>  <TPSA>  (413) 
63.25000000000001

>  <logP>  (413) 
3.2947200000000016

>  <HBD>  (413) 
2

>  <HBA>  (413) 
5

>  <SMILES>  (413) 
[H]c1c([H])c([H])c(N([H])C(=O)c2sc(N([H])C([H])([H])C3([H])OC([H])([H])C([H])([H])C3([H])[H])nc2C([H])([H])[H])c([H])c1[H]

$$$$
Z48852930_pose5
     RDKit          3D

 41 43  0  0  0  0  0  0  0  0999 V2000
    3.5453   44.6651   51.9934 C   0  0  0  0  0  0  0  0  0  0  0  0
    3.3913   45.5219   53.1995 C   0  0  0  0  0  0  0  0  0  0  0  0
    2.3202   45.2606   54.0393 N   0  0  0  0  0  0  0  0  0  0  0  0
    2.3448   46.0435   55.0924 C   0  0  0  0  0  0  0  0  0  0  0  0
    1.3808   45.9531   56.0394 N   0  0  0  0  0  0  0  0  0  0  0  0
    0.2502   45.0414   55.9111 C   0  0  0  0  0  0  0  0  0  0  0  0
   -1.0693   45.6405   56.4181 C   0  0  0  0  0  0  0  0  0  0  0  0
   -1.0035   47.1314   56.7157 C   0  0  0  0  0  0  0  0  0  0  0  0
   -2.1259   47.2884   57.7108 C   0  0  0  0  0  0  0  0  0  0  0  0
   -2.0081   46.0167   58.5232 C   0  0  0  0  0  0  0  0  0  0  0  0
   -1.4538   45.0133   57.6595 O   0  0  0  0  0  0  0  0  0  0  0  0
    3.6539   47.1567   55.1212 S   0  0  0  0  0  0  0  0  0  0  0  0
    4.2060   46.5626   53.6127 C   0  0  0  0  0  0  0  0  0  0  0  0
    5.3844   47.1516   53.0007 C   0  0  0  0  0  0  0  0  0  0  0  0
    5.3251   48.1630   52.3109 O   0  0  0  0  0  0  0  0  0  0  0  0
    6.5435   46.4357   53.2578 N   0  0  0  0  0  0  0  0  0  0  0  0
    7.8614   46.7503   52.8689 C   0  0  0  0  0  0  0  0  0  0  0  0
    8.4791   45.8867   51.9536 C   0  0  0  0  0  0  0  0  0  0  0  0
    9.7879   46.1210   51.5216 C   0  0  0  0  0  0  0  0  0  0  0  0
   10.4938   47.2191   52.0027 C   0  0  0  0  0  0  0  0  0  0  0  0
    9.8903   48.0808   52.9164 C   0  0  0  0  0  0  0  0  0  0  0  0
    8.5805   47.8471   53.3492 C   0  0  0  0  0  0  0  0  0  0  0  0
    4.0070   45.2503   51.1845 H   0  0  0  0  0  0  0  0  0  0  0  0
    4.1858   43.8040   52.2346 H   0  0  0  0  0  0  0  0  0  0  0  0
    2.5569   44.3075   51.6690 H   0  0  0  0  0  0  0  0  0  0  0  0
    1.1417   46.8531   56.4453 H   0  0  0  0  0  0  0  0  0  0  0  0
    0.1305   44.7799   54.8494 H   0  0  0  0  0  0  0  0  0  0  0  0
    0.4689   44.1596   56.5312 H   0  0  0  0  0  0  0  0  0  0  0  0
   -1.7853   45.4662   55.6015 H   0  0  0  0  0  0  0  0  0  0  0  0
   -0.0347   47.4112   57.1552 H   0  0  0  0  0  0  0  0  0  0  0  0
   -1.0996   47.7713   55.8262 H   0  0  0  0  0  0  0  0  0  0  0  0
   -1.9806   48.1791   58.3397 H   0  0  0  0  0  0  0  0  0  0  0  0
   -3.1134   47.4276   57.2465 H   0  0  0  0  0  0  0  0  0  0  0  0
   -1.3453   46.1801   59.3857 H   0  0  0  0  0  0  0  0  0  0  0  0
   -2.9911   45.7042   58.9055 H   0  0  0  0  0  0  0  0  0  0  0  0
    6.4259   45.5422   53.7175 H   0  0  0  0  0  0  0  0  0  0  0  0
    7.9279   45.0151   51.5710 H   0  0  0  0  0  0  0  0  0  0  0  0
   10.2597   45.4368   50.8011 H   0  0  0  0  0  0  0  0  0  0  0  0
   11.5233   47.4062   51.6634 H   0  0  0  0  0  0  0  0  0  0  0  0
   10.4464   48.9491   53.2994 H   0  0  0  0  0  0  0  0  0  0  0  0
    8.1139   48.5319   54.0726 H   0  0  0  0  0  0  0  0  0  0  0  0
  1  2  1  0
  2  3  1  0
  3  4  2  0
  4  5  1  0
  5  6  1  0
  6  7  1  0
  7  8  1  0
  8  9  1  0
  9 10  1  0
 10 11  1  0
  4 12  1  0
 12 13  1  0
 13 14  1  0
 14 15  2  0
 14 16  1  0
 16 17  1  0
 17 18  2  0
 18 19  1  0
 19 20  2  0
 20 21  1  0
 21 22  2  0
 13  2  2  0
 22 17  1  0
 11  7  1  0
  1 23  1  0
  1 24  1  0
  1 25  1  0
  5 26  1  0
  6 27  1  0
  6 28  1  0
  7 29  1  0
  8 30  1  0
  8 31  1  0
  9 32  1  0
  9 33  1  0
 10 34  1  0
 10 35  1  0
 16 36  1  0
 18 37  1  0
 19 38  1  0
 20 39  1  0
 21 40  1  0
 22 41  1  0
M  END
>  <meeko>  (414) 
{"is_sidechain": false}

>  <CID>  (414) 
Z48852930

>  <pose_index>  (414) 
5

>  <docking_score>  (414) 
-7.545

>  <rmsd_to_best_selected>  (414) 
1.876818857323556

>  <MWT>  (414) 
317.4139999999997

>  <TPSA>  (414) 
63.25000000000001

>  <logP>  (414) 
3.2947200000000016

>  <HBD>  (414) 
2

>  <HBA>  (414) 
5

>  <SMILES>  (414) 
[H]c1c([H])c([H])c(N([H])C(=O)c2sc(N([H])C([H])([H])C3([H])OC([H])([H])C([H])([H])C3([H])[H])nc2C([H])([H])[H])c([H])c1[H]

$$$$
Z48852930_pose8
     RDKit          3D

 41 43  0  0  0  0  0  0  0  0999 V2000
    4.4081   43.9993   54.8589 C   0  0  0  0  0  0  0  0  0  0  0  0
    4.1558   45.3100   55.5165 C   0  0  0  0  0  0  0  0  0  0  0  0
    2.9832   45.4463   56.2440 N   0  0  0  0  0  0  0  0  0  0  0  0
    2.9223   46.6230   56.8226 C   0  0  0  0  0  0  0  0  0  0  0  0
    1.8515   46.9616   57.5795 N   0  0  0  0  0  0  0  0  0  0  0  0
    0.5973   47.4126   56.9920 C   0  0  0  0  0  0  0  0  0  0  0  0
   -0.2354   46.2692   56.3956 C   0  0  0  0  0  0  0  0  0  0  0  0
   -0.7867   46.5580   55.0065 C   0  0  0  0  0  0  0  0  0  0  0  0
   -1.9772   45.6313   54.9568 C   0  0  0  0  0  0  0  0  0  0  0  0
   -2.5073   45.7228   56.3710 C   0  0  0  0  0  0  0  0  0  0  0  0
   -1.3888   46.0124   57.2243 O   0  0  0  0  0  0  0  0  0  0  0  0
    4.2679   47.6432   56.5046 S   0  0  0  0  0  0  0  0  0  0  0  0
    4.9638   46.4334   55.5104 C   0  0  0  0  0  0  0  0  0  0  0  0
    6.2294   46.6937   54.8487 C   0  0  0  0  0  0  0  0  0  0  0  0
    7.2467   46.9786   55.4726 O   0  0  0  0  0  0  0  0  0  0  0  0
    6.1460   46.6133   53.4672 N   0  0  0  0  0  0  0  0  0  0  0  0
    7.1852   46.7522   52.5253 C   0  0  0  0  0  0  0  0  0  0  0  0
    6.8831   47.4325   51.3372 C   0  0  0  0  0  0  0  0  0  0  0  0
    7.8535   47.6078   50.3473 C   0  0  0  0  0  0  0  0  0  0  0  0
    9.1364   47.1013   50.5326 C   0  0  0  0  0  0  0  0  0  0  0  0
    9.4461   46.4190   51.7067 C   0  0  0  0  0  0  0  0  0  0  0  0
    8.4745   46.2432   52.6987 C   0  0  0  0  0  0  0  0  0  0  0  0
    3.9638   44.0024   53.8526 H   0  0  0  0  0  0  0  0  0  0  0  0
    5.4923   43.8311   54.7804 H   0  0  0  0  0  0  0  0  0  0  0  0
    3.9547   43.1954   55.4574 H   0  0  0  0  0  0  0  0  0  0  0  0
    2.1109   47.4536   58.4291 H   0  0  0  0  0  0  0  0  0  0  0  0
    0.0027   47.9074   57.7741 H   0  0  0  0  0  0  0  0  0  0  0  0
    0.8489   48.0980   56.1693 H   0  0  0  0  0  0  0  0  0  0  0  0
    0.4601   45.4188   56.3392 H   0  0  0  0  0  0  0  0  0  0  0  0
   -1.0920   47.6101   54.9060 H   0  0  0  0  0  0  0  0  0  0  0  0
   -0.0616   46.4008   54.1945 H   0  0  0  0  0  0  0  0  0  0  0  0
   -2.7235   45.9784   54.2271 H   0  0  0  0  0  0  0  0  0  0  0  0
   -1.7286   44.6070   54.6420 H   0  0  0  0  0  0  0  0  0  0  0  0
   -3.2544   46.5270   56.4425 H   0  0  0  0  0  0  0  0  0  0  0  0
   -2.9927   44.7815   56.6684 H   0  0  0  0  0  0  0  0  0  0  0  0
    5.2166   46.5145   53.0802 H   0  0  0  0  0  0  0  0  0  0  0  0
    5.8704   47.8329   51.1826 H   0  0  0  0  0  0  0  0  0  0  0  0
    7.6034   48.1463   49.4213 H   0  0  0  0  0  0  0  0  0  0  0  0
    9.9024   47.2391   49.7553 H   0  0  0  0  0  0  0  0  0  0  0  0
   10.4590   46.0166   51.8550 H   0  0  0  0  0  0  0  0  0  0  0  0
    8.7279   45.7004   53.6213 H   0  0  0  0  0  0  0  0  0  0  0  0
  1  2  1  0
  2  3  1  0
  3  4  2  0
  4  5  1  0
  5  6  1  0
  6  7  1  0
  7  8  1  0
  8  9  1  0
  9 10  1  0
 10 11  1  0
  4 12  1  0
 12 13  1  0
 13 14  1  0
 14 15  2  0
 14 16  1  0
 16 17  1  0
 17 18  2  0
 18 19  1  0
 19 20  2  0
 20 21  1  0
 21 22  2  0
 13  2  2  0
 22 17  1  0
 11  7  1  0
  1 23  1  0
  1 24  1  0
  1 25  1  0
  5 26  1  0
  6 27  1  0
  6 28  1  0
  7 29  1  0
  8 30  1  0
  8 31  1  0
  9 32  1  0
  9 33  1  0
 10 34  1  0
 10 35  1  0
 16 36  1  0
 18 37  1  0
 19 38  1  0
 20 39  1  0
 21 40  1  0
 22 41  1  0
M  END
>  <meeko>  (415) 
{"is_sidechain": false}

>  <CID>  (415) 
Z48852930

>  <pose_index>  (415) 
8

>  <docking_score>  (415) 
-7.307

>  <rmsd_to_best_selected>  (415) 
1.7273075591049745

>  <MWT>  (415) 
317.4139999999997

>  <TPSA>  (415) 
63.25000000000001

>  <logP>  (415) 
3.2947200000000016

>  <HBD>  (415) 
2

>  <HBA>  (415) 
5

>  <SMILES>  (415) 
[H]c1c([H])c([H])c(N([H])C(=O)c2sc(N([H])C([H])([H])C3([H])OC([H])([H])C([H])([H])C3([H])[H])nc2C([H])([H])[H])c([H])c1[H]

$$$$
Z48852930_pose10
     RDKit          3D

 41 43  0  0  0  0  0  0  0  0999 V2000
    5.1708   45.9907   56.5105 C   0  0  0  0  0  0  0  0  0  0  0  0
    4.0640   46.5333   55.6773 C   0  0  0  0  0  0  0  0  0  0  0  0
    2.9614   47.0522   56.3363 N   0  0  0  0  0  0  0  0  0  0  0  0
    2.0968   47.5551   55.4856 C   0  0  0  0  0  0  0  0  0  0  0  0
    0.9424   48.1098   55.9243 N   0  0  0  0  0  0  0  0  0  0  0  0
    0.2296   47.6005   57.0885 C   0  0  0  0  0  0  0  0  0  0  0  0
   -0.8866   46.6096   56.7273 C   0  0  0  0  0  0  0  0  0  0  0  0
   -0.4719   45.1478   56.8063 C   0  0  0  0  0  0  0  0  0  0  0  0
   -1.4600   44.5042   55.8641 C   0  0  0  0  0  0  0  0  0  0  0  0
   -1.5680   45.5388   54.7656 C   0  0  0  0  0  0  0  0  0  0  0  0
   -1.3109   46.8184   55.3634 O   0  0  0  0  0  0  0  0  0  0  0  0
    2.5579   47.4118   53.8358 S   0  0  0  0  0  0  0  0  0  0  0  0
    3.9968   46.6053   54.2961 C   0  0  0  0  0  0  0  0  0  0  0  0
    4.9176   46.1465   53.2712 C   0  0  0  0  0  0  0  0  0  0  0  0
    4.6519   45.2115   52.5238 O   0  0  0  0  0  0  0  0  0  0  0  0
    6.1112   46.8526   53.2606 N   0  0  0  0  0  0  0  0  0  0  0  0
    7.1955   46.7105   52.3709 C   0  0  0  0  0  0  0  0  0  0  0  0
    8.1340   45.7122   52.6656 C   0  0  0  0  0  0  0  0  0  0  0  0
    9.2438   45.5082   51.8398 C   0  0  0  0  0  0  0  0  0  0  0  0
    9.4274   46.3035   50.7132 C   0  0  0  0  0  0  0  0  0  0  0  0
    8.5033   47.3015   50.4136 C   0  0  0  0  0  0  0  0  0  0  0  0
    7.3917   47.5049   51.2409 C   0  0  0  0  0  0  0  0  0  0  0  0
    5.9319   46.7704   56.6619 H   0  0  0  0  0  0  0  0  0  0  0  0
    4.7735   45.6720   57.4855 H   0  0  0  0  0  0  0  0  0  0  0  0
    5.6253   45.1287   56.0003 H   0  0  0  0  0  0  0  0  0  0  0  0
    0.3369   48.4092   55.1665 H   0  0  0  0  0  0  0  0  0  0  0  0
    0.9505   47.0913   57.7450 H   0  0  0  0  0  0  0  0  0  0  0  0
   -0.2441   48.4606   57.5844 H   0  0  0  0  0  0  0  0  0  0  0  0
   -1.6788   46.8014   57.4659 H   0  0  0  0  0  0  0  0  0  0  0  0
    0.5632   45.0045   56.4626 H   0  0  0  0  0  0  0  0  0  0  0  0
   -0.4860   44.7317   57.8244 H   0  0  0  0  0  0  0  0  0  0  0  0
   -1.0781   43.5482   55.4765 H   0  0  0  0  0  0  0  0  0  0  0  0
   -2.4227   44.2546   56.3341 H   0  0  0  0  0  0  0  0  0  0  0  0
   -0.8261   45.3336   53.9798 H   0  0  0  0  0  0  0  0  0  0  0  0
   -2.5661   45.5163   54.3036 H   0  0  0  0  0  0  0  0  0  0  0  0
    6.2560   47.4996   54.0252 H   0  0  0  0  0  0  0  0  0  0  0  0
    7.9959   45.0821   53.5565 H   0  0  0  0  0  0  0  0  0  0  0  0
    9.9715   44.7193   52.0810 H   0  0  0  0  0  0  0  0  0  0  0  0
   10.2991   46.1446   50.0613 H   0  0  0  0  0  0  0  0  0  0  0  0
    8.6471   47.9323   49.5240 H   0  0  0  0  0  0  0  0  0  0  0  0
    6.6680   48.2969   50.9980 H   0  0  0  0  0  0  0  0  0  0  0  0
  1  2  1  0
  2  3  1  0
  3  4  2  0
  4  5  1  0
  5  6  1  0
  6  7  1  0
  7  8  1  0
  8  9  1  0
  9 10  1  0
 10 11  1  0
  4 12  1  0
 12 13  1  0
 13 14  1  0
 14 15  2  0
 14 16  1  0
 16 17  1  0
 17 18  2  0
 18 19  1  0
 19 20  2  0
 20 21  1  0
 21 22  2  0
 13  2  2  0
 22 17  1  0
 11  7  1  0
  1 23  1  0
  1 24  1  0
  1 25  1  0
  5 26  1  0
  6 27  1  0
  6 28  1  0
  7 29  1  0
  8 30  1  0
  8 31  1  0
  9 32  1  0
  9 33  1  0
 10 34  1  0
 10 35  1  0
 16 36  1  0
 18 37  1  0
 19 38  1  0
 20 39  1  0
 21 40  1  0
 22 41  1  0
M  END
>  <meeko>  (416) 
{"is_sidechain": false}

>  <CID>  (416) 
Z48852930

>  <pose_index>  (416) 
10

>  <docking_score>  (416) 
-7.169

>  <rmsd_to_best_selected>  (416) 
1.5533163260871414

>  <MWT>  (416) 
317.4139999999997

>  <TPSA>  (416) 
63.25000000000001

>  <logP>  (416) 
3.2947200000000016

>  <HBD>  (416) 
2

>  <HBA>  (416) 
5

>  <SMILES>  (416) 
[H]c1c([H])c([H])c(N([H])C(=O)c2sc(N([H])C([H])([H])C3([H])OC([H])([H])C([H])([H])C3([H])[H])nc2C([H])([H])[H])c([H])c1[H]

$$$$
Z48858335_pose1
     RDKit          3D

 43 45  0  0  0  0  0  0  0  0999 V2000
    5.1920   44.9210   55.2890 C   0  0  0  0  0  0  0  0  0  0  0  0
    5.2080   45.3370   53.8610 C   0  0  0  0  0  0  0  0  0  0  0  0
    6.4290   45.3510   53.2040 N   0  0  0  0  0  0  0  0  0  0  0  0
    6.2990   45.7370   51.9630 C   0  0  0  0  0  0  0  0  0  0  0  0
    7.2810   45.8600   51.0470 N   0  0  0  0  0  0  0  0  0  0  0  0
    8.4570   46.7120   51.1900 C   0  0  0  0  0  0  0  0  0  0  0  0
    8.1650   48.0230   51.9300 C   0  0  0  0  0  0  0  0  0  0  0  0
    8.4880   48.0040   53.4200 C   0  0  0  0  0  0  0  0  0  0  0  0
    9.8860   47.4610   53.6850 C   0  0  0  0  0  0  0  0  0  0  0  0
   10.0580   46.0560   53.1260 C   0  0  0  0  0  0  0  0  0  0  0  0
    9.7220   45.9690   51.6390 C   0  0  0  0  0  0  0  0  0  0  0  0
    4.6800   46.1060   51.5060 S   0  0  0  0  0  0  0  0  0  0  0  0
    4.1260   45.7210   53.0850 C   0  0  0  0  0  0  0  0  0  0  0  0
    2.7220   45.8120   53.4750 C   0  0  0  0  0  0  0  0  0  0  0  0
    1.9980   46.7060   53.0510 O   0  0  0  0  0  0  0  0  0  0  0  0
    2.3020   44.8180   54.3450 N   0  0  0  0  0  0  0  0  0  0  0  0
    1.0220   44.6220   54.9020 C   0  0  0  0  0  0  0  0  0  0  0  0
    0.7910   45.1720   56.1710 C   0  0  0  0  0  0  0  0  0  0  0  0
   -0.4480   45.0270   56.7980 C   0  0  0  0  0  0  0  0  0  0  0  0
   -1.4720   44.3290   56.1620 C   0  0  0  0  0  0  0  0  0  0  0  0
   -1.2530   43.7800   54.9020 C   0  0  0  0  0  0  0  0  0  0  0  0
   -0.0110   43.9250   54.2740 C   0  0  0  0  0  0  0  0  0  0  0  0
    5.2263   45.8134   55.9313 H   0  0  0  0  0  0  0  0  0  0  0  0
    4.2714   44.3555   55.4959 H   0  0  0  0  0  0  0  0  0  0  0  0
    6.0664   44.2865   55.4959 H   0  0  0  0  0  0  0  0  0  0  0  0
    7.0120   45.6840   50.0850 H   0  0  0  0  0  0  0  0  0  0  0  0
    8.7157   47.0331   50.1702 H   0  0  0  0  0  0  0  0  0  0  0  0
    8.7607   48.8201   51.4612 H   0  0  0  0  0  0  0  0  0  0  0  0
    7.0802   48.1870   51.8513 H   0  0  0  0  0  0  0  0  0  0  0  0
    8.4234   49.0297   53.8121 H   0  0  0  0  0  0  0  0  0  0  0  0
    7.7630   47.3451   53.9203 H   0  0  0  0  0  0  0  0  0  0  0  0
   10.6228   48.1262   53.2110 H   0  0  0  0  0  0  0  0  0  0  0  0
   10.0373   47.4184   54.7737 H   0  0  0  0  0  0  0  0  0  0  0  0
   11.1035   45.7456   53.2694 H   0  0  0  0  0  0  0  0  0  0  0  0
    9.3608   45.3965   53.6636 H   0  0  0  0  0  0  0  0  0  0  0  0
   10.5724   46.3827   51.0772 H   0  0  0  0  0  0  0  0  0  0  0  0
    9.5264   44.9047   51.4413 H   0  0  0  0  0  0  0  0  0  0  0  0
    3.0120   44.1490   54.6150 H   0  0  0  0  0  0  0  0  0  0  0  0
    1.5956   45.7243   56.6786 H   0  0  0  0  0  0  0  0  0  0  0  0
   -0.6154   45.4637   57.7936 H   0  0  0  0  0  0  0  0  0  0  0  0
   -2.4492   44.2122   56.6533 H   0  0  0  0  0  0  0  0  0  0  0  0
   -2.0604   43.2293   54.3972 H   0  0  0  0  0  0  0  0  0  0  0  0
    0.1522   43.4865   53.2784 H   0  0  0  0  0  0  0  0  0  0  0  0
  1  2  1  0
  2  3  1  0
  3  4  2  0
  4  5  1  0
  5  6  1  0
  6  7  1  0
  7  8  1  0
  8  9  1  0
  9 10  1  0
 10 11  1  0
  4 12  1  0
 12 13  1  0
 13 14  1  0
 14 15  2  0
 14 16  1  0
 16 17  1  0
 17 18  2  0
 18 19  1  0
 19 20  2  0
 20 21  1  0
 21 22  2  0
 13  2  2  0
 22 17  1  0
 11  6  1  0
  1 23  1  0
  1 24  1  0
  1 25  1  0
  5 26  1  0
  6 27  1  0
  7 28  1  0
  7 29  1  0
  8 30  1  0
  8 31  1  0
  9 32  1  0
  9 33  1  0
 10 34  1  0
 10 35  1  0
 11 36  1  0
 11 37  1  0
 16 38  1  0
 18 39  1  0
 19 40  1  0
 20 41  1  0
 21 42  1  0
 22 43  1  0
M  END
>  <meeko>  (417) 
{"is_sidechain": false}

>  <CID>  (417) 
Z48858335

>  <pose_index>  (417) 
1

>  <docking_score>  (417) 
-8.673

>  <rmsd_to_best_selected>  (417) 
0.0

>  <MWT>  (417) 
315.44199999999967

>  <TPSA>  (417) 
54.02

>  <logP>  (417) 
4.448420000000003

>  <HBD>  (417) 
2

>  <HBA>  (417) 
4

>  <SMILES>  (417) 
[H]c1c([H])c([H])c(N([H])C(=O)c2sc(N([H])C3([H])C([H])([H])C([H])([H])C([H])([H])C([H])([H])C3([H])[H])nc2C([H])([H])[H])c([H])c1[H]

$$$$
Z48858335_pose2
     RDKit          3D

 43 45  0  0  0  0  0  0  0  0999 V2000
    5.1160   46.2869   55.8955 C   0  0  0  0  0  0  0  0  0  0  0  0
    5.1433   46.1187   54.4179 C   0  0  0  0  0  0  0  0  0  0  0  0
    6.0950   46.8296   53.7025 N   0  0  0  0  0  0  0  0  0  0  0  0
    6.0048   46.5917   52.4213 C   0  0  0  0  0  0  0  0  0  0  0  0
    6.7761   47.1131   51.4451 N   0  0  0  0  0  0  0  0  0  0  0  0
    8.1810   46.7850   51.2236 C   0  0  0  0  0  0  0  0  0  0  0  0
    9.1019   48.0113   51.2735 C   0  0  0  0  0  0  0  0  0  0  0  0
    9.7794   48.2507   52.6175 C   0  0  0  0  0  0  0  0  0  0  0  0
   10.4352   46.9829   53.1489 C   0  0  0  0  0  0  0  0  0  0  0  0
    9.4285   45.8511   53.2997 C   0  0  0  0  0  0  0  0  0  0  0  0
    8.6713   45.5609   52.0066 C   0  0  0  0  0  0  0  0  0  0  0  0
    4.7584   45.4822   51.9960 S   0  0  0  0  0  0  0  0  0  0  0  0
    4.3145   45.3184   53.6472 C   0  0  0  0  0  0  0  0  0  0  0  0
    3.2253   44.4543   54.0911 C   0  0  0  0  0  0  0  0  0  0  0  0
    3.3891   43.2484   54.2487 O   0  0  0  0  0  0  0  0  0  0  0  0
    2.0240   45.1108   54.3112 N   0  0  0  0  0  0  0  0  0  0  0  0
    0.7957   44.5717   54.7420 C   0  0  0  0  0  0  0  0  0  0  0  0
    0.6891   44.2403   56.1004 C   0  0  0  0  0  0  0  0  0  0  0  0
   -0.4919   43.7006   56.6152 C   0  0  0  0  0  0  0  0  0  0  0  0
   -1.5815   43.4863   55.7746 C   0  0  0  0  0  0  0  0  0  0  0  0
   -1.4866   43.8129   54.4248 C   0  0  0  0  0  0  0  0  0  0  0  0
   -0.3021   44.3533   53.9105 C   0  0  0  0  0  0  0  0  0  0  0  0
    4.3622   47.0414   56.1649 H   0  0  0  0  0  0  0  0  0  0  0  0
    4.8600   45.3276   56.3691 H   0  0  0  0  0  0  0  0  0  0  0  0
    6.1055   46.6160   56.2455 H   0  0  0  0  0  0  0  0  0  0  0  0
    6.5104   48.0352   51.1172 H   0  0  0  0  0  0  0  0  0  0  0  0
    8.2451   46.4457   50.1792 H   0  0  0  0  0  0  0  0  0  0  0  0
    9.8865   47.8806   50.5138 H   0  0  0  0  0  0  0  0  0  0  0  0
    8.4606   48.8863   51.0911 H   0  0  0  0  0  0  0  0  0  0  0  0
   10.5494   49.0267   52.4958 H   0  0  0  0  0  0  0  0  0  0  0  0
    9.0114   48.5685   53.3380 H   0  0  0  0  0  0  0  0  0  0  0  0
   11.2233   46.6685   52.4489 H   0  0  0  0  0  0  0  0  0  0  0  0
   10.8555   47.2034   54.1412 H   0  0  0  0  0  0  0  0  0  0  0  0
    9.9653   44.9408   53.6052 H   0  0  0  0  0  0  0  0  0  0  0  0
    8.6908   46.1606   54.0547 H   0  0  0  0  0  0  0  0  0  0  0  0
    9.3387   44.9857   51.3480 H   0  0  0  0  0  0  0  0  0  0  0  0
    7.7626   45.0207   52.3106 H   0  0  0  0  0  0  0  0  0  0  0  0
    2.0364   46.1072   54.1345 H   0  0  0  0  0  0  0  0  0  0  0  0
    1.5464   44.4075   56.7690 H   0  0  0  0  0  0  0  0  0  0  0  0
   -0.5613   43.4452   57.6829 H   0  0  0  0  0  0  0  0  0  0  0  0
   -2.5132   43.0607   56.1757 H   0  0  0  0  0  0  0  0  0  0  0  0
   -2.3463   43.6455   53.7593 H   0  0  0  0  0  0  0  0  0  0  0  0
   -0.2369   44.6076   52.8423 H   0  0  0  0  0  0  0  0  0  0  0  0
  1  2  1  0
  2  3  1  0
  3  4  2  0
  4  5  1  0
  5  6  1  0
  6  7  1  0
  7  8  1  0
  8  9  1  0
  9 10  1  0
 10 11  1  0
  4 12  1  0
 12 13  1  0
 13 14  1  0
 14 15  2  0
 14 16  1  0
 16 17  1  0
 17 18  2  0
 18 19  1  0
 19 20  2  0
 20 21  1  0
 21 22  2  0
 13  2  2  0
 22 17  1  0
 11  6  1  0
  1 23  1  0
  1 24  1  0
  1 25  1  0
  5 26  1  0
  6 27  1  0
  7 28  1  0
  7 29  1  0
  8 30  1  0
  8 31  1  0
  9 32  1  0
  9 33  1  0
 10 34  1  0
 10 35  1  0
 11 36  1  0
 11 37  1  0
 16 38  1  0
 18 39  1  0
 19 40  1  0
 20 41  1  0
 21 42  1  0
 22 43  1  0
M  END
>  <meeko>  (418) 
{"is_sidechain": false}

>  <CID>  (418) 
Z48858335

>  <pose_index>  (418) 
2

>  <docking_score>  (418) 
-8.449

>  <rmsd_to_best_selected>  (418) 
1.5368169683782877

>  <MWT>  (418) 
315.44199999999967

>  <TPSA>  (418) 
54.02

>  <logP>  (418) 
4.448420000000003

>  <HBD>  (418) 
2

>  <HBA>  (418) 
4

>  <SMILES>  (418) 
[H]c1c([H])c([H])c(N([H])C(=O)c2sc(N([H])C3([H])C([H])([H])C([H])([H])C([H])([H])C([H])([H])C3([H])[H])nc2C([H])([H])[H])c([H])c1[H]

$$$$
Z48858335_pose3
     RDKit          3D

 43 45  0  0  0  0  0  0  0  0999 V2000
    5.1712   46.3162   55.9317 C   0  0  0  0  0  0  0  0  0  0  0  0
    5.1761   46.1154   54.4573 C   0  0  0  0  0  0  0  0  0  0  0  0
    6.1113   46.8157   53.7115 N   0  0  0  0  0  0  0  0  0  0  0  0
    6.0021   46.5494   52.4378 C   0  0  0  0  0  0  0  0  0  0  0  0
    6.7543   47.0544   51.4380 N   0  0  0  0  0  0  0  0  0  0  0  0
    8.1629   46.7425   51.2111 C   0  0  0  0  0  0  0  0  0  0  0  0
    9.0617   47.9844   51.2106 C   0  0  0  0  0  0  0  0  0  0  0  0
    9.7500   48.2794   52.5392 C   0  0  0  0  0  0  0  0  0  0  0  0
   10.4339   47.0409   53.1045 C   0  0  0  0  0  0  0  0  0  0  0  0
    9.4486   45.8971   53.3029 C   0  0  0  0  0  0  0  0  0  0  0  0
    8.6822   45.5522   52.0276 C   0  0  0  0  0  0  0  0  0  0  0  0
    4.7569   45.4219   52.0580 S   0  0  0  0  0  0  0  0  0  0  0  0
    4.3416   45.2922   53.7183 C   0  0  0  0  0  0  0  0  0  0  0  0
    3.2649   44.4316   54.1999 C   0  0  0  0  0  0  0  0  0  0  0  0
    3.4384   43.2316   54.3800 O   0  0  0  0  0  0  0  0  0  0  0  0
    2.0629   45.0856   54.4247 N   0  0  0  0  0  0  0  0  0  0  0  0
    0.8451   44.5480   54.8874 C   0  0  0  0  0  0  0  0  0  0  0  0
   -0.2103   44.4807   53.9657 C   0  0  0  0  0  0  0  0  0  0  0  0
   -1.4523   43.9634   54.3377 C   0  0  0  0  0  0  0  0  0  0  0  0
   -1.6539   43.5070   55.6376 C   0  0  0  0  0  0  0  0  0  0  0  0
   -0.6138   43.5690   56.5601 C   0  0  0  0  0  0  0  0  0  0  0  0
    0.6315   44.0880   56.1863 C   0  0  0  0  0  0  0  0  0  0  0  0
    4.4228   47.0780   56.1955 H   0  0  0  0  0  0  0  0  0  0  0  0
    4.9207   45.3681   56.4301 H   0  0  0  0  0  0  0  0  0  0  0  0
    6.1664   46.6509   56.2595 H   0  0  0  0  0  0  0  0  0  0  0  0
    6.4695   47.9610   51.0856 H   0  0  0  0  0  0  0  0  0  0  0  0
    8.2226   46.3700   50.1778 H   0  0  0  0  0  0  0  0  0  0  0  0
    9.8403   47.8425   50.4466 H   0  0  0  0  0  0  0  0  0  0  0  0
    8.4033   48.8417   51.0072 H   0  0  0  0  0  0  0  0  0  0  0  0
   10.5049   49.0641   52.3835 H   0  0  0  0  0  0  0  0  0  0  0  0
    8.9843   48.6073   53.2577 H   0  0  0  0  0  0  0  0  0  0  0  0
   11.2202   46.7176   52.4065 H   0  0  0  0  0  0  0  0  0  0  0  0
   10.8606   47.3009   54.0844 H   0  0  0  0  0  0  0  0  0  0  0  0
   10.0045   45.0065   53.6311 H   0  0  0  0  0  0  0  0  0  0  0  0
    8.7138   46.2180   54.0559 H   0  0  0  0  0  0  0  0  0  0  0  0
    9.3522   44.9672   51.3804 H   0  0  0  0  0  0  0  0  0  0  0  0
    7.7861   45.0071   52.3589 H   0  0  0  0  0  0  0  0  0  0  0  0
    2.0650   46.0777   54.2259 H   0  0  0  0  0  0  0  0  0  0  0  0
   -0.0574   44.8400   52.9373 H   0  0  0  0  0  0  0  0  0  0  0  0
   -2.2710   43.9164   53.6046 H   0  0  0  0  0  0  0  0  0  0  0  0
   -2.6315   43.0989   55.9341 H   0  0  0  0  0  0  0  0  0  0  0  0
   -0.7708   43.2087   57.5875 H   0  0  0  0  0  0  0  0  0  0  0  0
    1.4474   44.1333   56.9227 H   0  0  0  0  0  0  0  0  0  0  0  0
  1  2  1  0
  2  3  1  0
  3  4  2  0
  4  5  1  0
  5  6  1  0
  6  7  1  0
  7  8  1  0
  8  9  1  0
  9 10  1  0
 10 11  1  0
  4 12  1  0
 12 13  1  0
 13 14  1  0
 14 15  2  0
 14 16  1  0
 16 17  1  0
 17 18  2  0
 18 19  1  0
 19 20  2  0
 20 21  1  0
 21 22  2  0
 13  2  2  0
 22 17  1  0
 11  6  1  0
  1 23  1  0
  1 24  1  0
  1 25  1  0
  5 26  1  0
  6 27  1  0
  7 28  1  0
  7 29  1  0
  8 30  1  0
  8 31  1  0
  9 32  1  0
  9 33  1  0
 10 34  1  0
 10 35  1  0
 11 36  1  0
 11 37  1  0
 16 38  1  0
 18 39  1  0
 19 40  1  0
 20 41  1  0
 21 42  1  0
 22 43  1  0
M  END
>  <meeko>  (419) 
{"is_sidechain": false}

>  <CID>  (419) 
Z48858335

>  <pose_index>  (419) 
3

>  <docking_score>  (419) 
-8.431

>  <rmsd_to_best_selected>  (419) 
1.575421240851335

>  <MWT>  (419) 
315.44199999999967

>  <TPSA>  (419) 
54.02

>  <logP>  (419) 
4.448420000000003

>  <HBD>  (419) 
2

>  <HBA>  (419) 
4

>  <SMILES>  (419) 
[H]c1c([H])c([H])c(N([H])C(=O)c2sc(N([H])C3([H])C([H])([H])C([H])([H])C([H])([H])C([H])([H])C3([H])[H])nc2C([H])([H])[H])c([H])c1[H]

$$$$
Z48858335_pose4
     RDKit          3D

 43 45  0  0  0  0  0  0  0  0999 V2000
    4.5381   45.5045   57.0600 C   0  0  0  0  0  0  0  0  0  0  0  0
    5.0174   45.6167   55.6559 C   0  0  0  0  0  0  0  0  0  0  0  0
    6.2111   46.2855   55.4315 N   0  0  0  0  0  0  0  0  0  0  0  0
    6.5095   46.3120   54.1595 C   0  0  0  0  0  0  0  0  0  0  0  0
    7.5982   46.8770   53.5968 N   0  0  0  0  0  0  0  0  0  0  0  0
    8.2755   46.3789   52.4028 C   0  0  0  0  0  0  0  0  0  0  0  0
    8.0721   47.2768   51.1756 C   0  0  0  0  0  0  0  0  0  0  0  0
    9.1954   48.2732   50.9161 C   0  0  0  0  0  0  0  0  0  0  0  0
   10.5621   47.6005   50.9499 C   0  0  0  0  0  0  0  0  0  0  0  0
   10.8140   46.9106   52.2819 C   0  0  0  0  0  0  0  0  0  0  0  0
    9.7168   45.9127   52.6458 C   0  0  0  0  0  0  0  0  0  0  0  0
    5.3636   45.5189   53.1490 S   0  0  0  0  0  0  0  0  0  0  0  0
    4.4047   45.1207   54.5163 C   0  0  0  0  0  0  0  0  0  0  0  0
    3.1532   44.3764   54.4157 C   0  0  0  0  0  0  0  0  0  0  0  0
    3.1316   43.2121   54.0298 O   0  0  0  0  0  0  0  0  0  0  0  0
    2.0265   45.0939   54.7858 N   0  0  0  0  0  0  0  0  0  0  0  0
    0.6824   44.6685   54.8048 C   0  0  0  0  0  0  0  0  0  0  0  0
   -0.0640   44.8715   53.6350 C   0  0  0  0  0  0  0  0  0  0  0  0
   -1.4032   44.4824   53.5646 C   0  0  0  0  0  0  0  0  0  0  0  0
   -2.0119   43.8839   54.6647 C   0  0  0  0  0  0  0  0  0  0  0  0
   -1.2792   43.6776   55.8305 C   0  0  0  0  0  0  0  0  0  0  0  0
    0.0627   44.0681   55.8999 C   0  0  0  0  0  0  0  0  0  0  0  0
    3.4708   45.7666   57.1052 H   0  0  0  0  0  0  0  0  0  0  0  0
    4.6775   44.4723   57.4136 H   0  0  0  0  0  0  0  0  0  0  0  0
    5.1118   46.1917   57.6993 H   0  0  0  0  0  0  0  0  0  0  0  0
    8.1963   47.4032   54.2230 H   0  0  0  0  0  0  0  0  0  0  0  0
    7.7601   45.4439   52.1382 H   0  0  0  0  0  0  0  0  0  0  0  0
    7.9781   46.6299   50.2908 H   0  0  0  0  0  0  0  0  0  0  0  0
    7.1704   47.8740   51.3764 H   0  0  0  0  0  0  0  0  0  0  0  0
    9.0464   48.7289   49.9260 H   0  0  0  0  0  0  0  0  0  0  0  0
    9.1680   49.0359   51.7083 H   0  0  0  0  0  0  0  0  0  0  0  0
   10.6116   46.8521   50.1453 H   0  0  0  0  0  0  0  0  0  0  0  0
   11.3305   48.3757   50.8133 H   0  0  0  0  0  0  0  0  0  0  0  0
   11.7727   46.3742   52.2246 H   0  0  0  0  0  0  0  0  0  0  0  0
   10.8283   47.6873   53.0608 H   0  0  0  0  0  0  0  0  0  0  0  0
    9.8804   45.0014   52.0519 H   0  0  0  0  0  0  0  0  0  0  0  0
    9.8007   45.7632   53.7324 H   0  0  0  0  0  0  0  0  0  0  0  0
    2.1960   46.0474   55.0771 H   0  0  0  0  0  0  0  0  0  0  0  0
    0.4114   45.3430   52.7622 H   0  0  0  0  0  0  0  0  0  0  0  0
   -1.9769   44.6485   52.6409 H   0  0  0  0  0  0  0  0  0  0  0  0
   -3.0666   43.5756   54.6130 H   0  0  0  0  0  0  0  0  0  0  0  0
   -1.7576   43.2052   56.7012 H   0  0  0  0  0  0  0  0  0  0  0  0
    0.6329   43.9002   56.8255 H   0  0  0  0  0  0  0  0  0  0  0  0
  1  2  1  0
  2  3  1  0
  3  4  2  0
  4  5  1  0
  5  6  1  0
  6  7  1  0
  7  8  1  0
  8  9  1  0
  9 10  1  0
 10 11  1  0
  4 12  1  0
 12 13  1  0
 13 14  1  0
 14 15  2  0
 14 16  1  0
 16 17  1  0
 17 18  2  0
 18 19  1  0
 19 20  2  0
 20 21  1  0
 21 22  2  0
 13  2  2  0
 22 17  1  0
 11  6  1  0
  1 23  1  0
  1 24  1  0
  1 25  1  0
  5 26  1  0
  6 27  1  0
  7 28  1  0
  7 29  1  0
  8 30  1  0
  8 31  1  0
  9 32  1  0
  9 33  1  0
 10 34  1  0
 10 35  1  0
 11 36  1  0
 11 37  1  0
 16 38  1  0
 18 39  1  0
 19 40  1  0
 20 41  1  0
 21 42  1  0
 22 43  1  0
M  END
>  <meeko>  (420) 
{"is_sidechain": false}

>  <CID>  (420) 
Z48858335

>  <pose_index>  (420) 
4

>  <docking_score>  (420) 
-8.286

>  <rmsd_to_best_selected>  (420) 
1.9603583925989523

>  <MWT>  (420) 
315.44199999999967

>  <TPSA>  (420) 
54.02

>  <logP>  (420) 
4.448420000000003

>  <HBD>  (420) 
2

>  <HBA>  (420) 
4

>  <SMILES>  (420) 
[H]c1c([H])c([H])c(N([H])C(=O)c2sc(N([H])C3([H])C([H])([H])C([H])([H])C([H])([H])C([H])([H])C3([H])[H])nc2C([H])([H])[H])c([H])c1[H]

$$$$
Z48858335_pose7
     RDKit          3D

 43 45  0  0  0  0  0  0  0  0999 V2000
    3.7704   46.1650   51.9717 C   0  0  0  0  0  0  0  0  0  0  0  0
    4.7096   46.3316   53.1140 C   0  0  0  0  0  0  0  0  0  0  0  0
    5.7902   47.1840   52.9448 N   0  0  0  0  0  0  0  0  0  0  0  0
    6.5310   47.2343   54.0193 C   0  0  0  0  0  0  0  0  0  0  0  0
    7.6514   47.9635   54.1952 N   0  0  0  0  0  0  0  0  0  0  0  0
    8.9315   47.7023   53.5432 C   0  0  0  0  0  0  0  0  0  0  0  0
    9.4327   46.2674   53.7522 C   0  0  0  0  0  0  0  0  0  0  0  0
    9.1075   45.3033   52.6169 C   0  0  0  0  0  0  0  0  0  0  0  0
    9.4891   45.8831   51.2609 C   0  0  0  0  0  0  0  0  0  0  0  0
    8.7841   47.2077   50.9987 C   0  0  0  0  0  0  0  0  0  0  0  0
    9.0246   48.2308   52.1063 C   0  0  0  0  0  0  0  0  0  0  0  0
    5.9615   46.2525   55.3136 S   0  0  0  0  0  0  0  0  0  0  0  0
    4.6355   45.7271   54.3589 C   0  0  0  0  0  0  0  0  0  0  0  0
    3.6303   44.7887   54.8489 C   0  0  0  0  0  0  0  0  0  0  0  0
    3.9258   43.6386   55.1563 O   0  0  0  0  0  0  0  0  0  0  0  0
    2.3480   45.3100   54.9283 N   0  0  0  0  0  0  0  0  0  0  0  0
    1.1677   44.6728   55.3595 C   0  0  0  0  0  0  0  0  0  0  0  0
    0.6990   43.6076   54.5764 C   0  0  0  0  0  0  0  0  0  0  0  0
   -0.4643   42.9183   54.9281 C   0  0  0  0  0  0  0  0  0  0  0  0
   -1.1717   43.2875   56.0687 C   0  0  0  0  0  0  0  0  0  0  0  0
   -0.7152   44.3432   56.8536 C   0  0  0  0  0  0  0  0  0  0  0  0
    0.4504   45.0324   56.4998 C   0  0  0  0  0  0  0  0  0  0  0  0
    3.8530   45.1422   51.5753 H   0  0  0  0  0  0  0  0  0  0  0  0
    2.7405   46.3432   52.3147 H   0  0  0  0  0  0  0  0  0  0  0  0
    4.0234   46.8864   51.1808 H   0  0  0  0  0  0  0  0  0  0  0  0
    7.7313   48.4433   55.0856 H   0  0  0  0  0  0  0  0  0  0  0  0
    9.6678   48.3221   54.0759 H   0  0  0  0  0  0  0  0  0  0  0  0
   10.5259   46.3008   53.8698 H   0  0  0  0  0  0  0  0  0  0  0  0
    8.9113   45.8844   54.6418 H   0  0  0  0  0  0  0  0  0  0  0  0
    9.6631   44.3670   52.7738 H   0  0  0  0  0  0  0  0  0  0  0  0
    8.0225   45.1221   52.6202 H   0  0  0  0  0  0  0  0  0  0  0  0
   10.5766   46.0464   51.2358 H   0  0  0  0  0  0  0  0  0  0  0  0
    9.1809   45.1694   50.4826 H   0  0  0  0  0  0  0  0  0  0  0  0
    9.1550   47.6222   50.0497 H   0  0  0  0  0  0  0  0  0  0  0  0
    7.7032   47.0074   50.9593 H   0  0  0  0  0  0  0  0  0  0  0  0
   10.0328   48.6477   51.9660 H   0  0  0  0  0  0  0  0  0  0  0  0
    8.2143   48.9683   52.0091 H   0  0  0  0  0  0  0  0  0  0  0  0
    2.2524   46.2735   54.6352 H   0  0  0  0  0  0  0  0  0  0  0  0
    1.2541   43.3113   53.6742 H   0  0  0  0  0  0  0  0  0  0  0  0
   -0.8207   42.0851   54.3046 H   0  0  0  0  0  0  0  0  0  0  0  0
   -2.0880   42.7472   56.3490 H   0  0  0  0  0  0  0  0  0  0  0  0
   -1.2729   44.6366   57.7553 H   0  0  0  0  0  0  0  0  0  0  0  0
    0.8035   45.8647   57.1264 H   0  0  0  0  0  0  0  0  0  0  0  0
  1  2  1  0
  2  3  1  0
  3  4  2  0
  4  5  1  0
  5  6  1  0
  6  7  1  0
  7  8  1  0
  8  9  1  0
  9 10  1  0
 10 11  1  0
  4 12  1  0
 12 13  1  0
 13 14  1  0
 14 15  2  0
 14 16  1  0
 16 17  1  0
 17 18  2  0
 18 19  1  0
 19 20  2  0
 20 21  1  0
 21 22  2  0
 13  2  2  0
 22 17  1  0
 11  6  1  0
  1 23  1  0
  1 24  1  0
  1 25  1  0
  5 26  1  0
  6 27  1  0
  7 28  1  0
  7 29  1  0
  8 30  1  0
  8 31  1  0
  9 32  1  0
  9 33  1  0
 10 34  1  0
 10 35  1  0
 11 36  1  0
 11 37  1  0
 16 38  1  0
 18 39  1  0
 19 40  1  0
 20 41  1  0
 21 42  1  0
 22 43  1  0
M  END
>  <meeko>  (421) 
{"is_sidechain": false}

>  <CID>  (421) 
Z48858335

>  <pose_index>  (421) 
7

>  <docking_score>  (421) 
-8.164

>  <rmsd_to_best_selected>  (421) 
0.5079838871545942

>  <MWT>  (421) 
315.44199999999967

>  <TPSA>  (421) 
54.02

>  <logP>  (421) 
4.448420000000003

>  <HBD>  (421) 
2

>  <HBA>  (421) 
4

>  <SMILES>  (421) 
[H]c1c([H])c([H])c(N([H])C(=O)c2sc(N([H])C3([H])C([H])([H])C([H])([H])C([H])([H])C([H])([H])C3([H])[H])nc2C([H])([H])[H])c([H])c1[H]

$$$$
Z48858335_pose8
     RDKit          3D

 43 45  0  0  0  0  0  0  0  0999 V2000
    3.7924   46.3074   51.4436 C   0  0  0  0  0  0  0  0  0  0  0  0
    4.4879   46.8486   52.6429 C   0  0  0  0  0  0  0  0  0  0  0  0
    5.7650   47.3610   52.4741 N   0  0  0  0  0  0  0  0  0  0  0  0
    6.2561   47.7961   53.6036 C   0  0  0  0  0  0  0  0  0  0  0  0
    7.4682   48.3574   53.7957 N   0  0  0  0  0  0  0  0  0  0  0  0
    8.7451   47.6734   53.6107 C   0  0  0  0  0  0  0  0  0  0  0  0
    8.7182   46.2110   54.0721 C   0  0  0  0  0  0  0  0  0  0  0  0
    8.4645   45.1934   52.9649 C   0  0  0  0  0  0  0  0  0  0  0  0
    9.3725   45.4307   51.7658 C   0  0  0  0  0  0  0  0  0  0  0  0
    9.1974   46.8314   51.1963 C   0  0  0  0  0  0  0  0  0  0  0  0
    9.3990   47.9222   52.2455 C   0  0  0  0  0  0  0  0  0  0  0  0
    5.1969   47.6172   54.9492 S   0  0  0  0  0  0  0  0  0  0  0  0
    4.0037   46.9052   53.9401 C   0  0  0  0  0  0  0  0  0  0  0  0
    2.7102   46.4538   54.4422 C   0  0  0  0  0  0  0  0  0  0  0  0
    1.7704   47.2304   54.5759 O   0  0  0  0  0  0  0  0  0  0  0  0
    2.6506   45.1024   54.7456 N   0  0  0  0  0  0  0  0  0  0  0  0
    1.5592   44.3612   55.2425 C   0  0  0  0  0  0  0  0  0  0  0  0
    1.7160   43.7670   56.5028 C   0  0  0  0  0  0  0  0  0  0  0  0
    0.6869   43.0147   57.0716 C   0  0  0  0  0  0  0  0  0  0  0  0
   -0.5139   42.8481   56.3862 C   0  0  0  0  0  0  0  0  0  0  0  0
   -0.6799   43.4357   55.1342 C   0  0  0  0  0  0  0  0  0  0  0  0
    0.3525   44.1882   54.5643 C   0  0  0  0  0  0  0  0  0  0  0  0
    3.8272   47.0503   50.6332 H   0  0  0  0  0  0  0  0  0  0  0  0
    4.2916   45.3836   51.1160 H   0  0  0  0  0  0  0  0  0  0  0  0
    2.7442   46.0883   51.6954 H   0  0  0  0  0  0  0  0  0  0  0  0
    7.5012   49.1207   54.4611 H   0  0  0  0  0  0  0  0  0  0  0  0
    9.4454   48.1591   54.3062 H   0  0  0  0  0  0  0  0  0  0  0  0
    9.6901   45.9799   54.5325 H   0  0  0  0  0  0  0  0  0  0  0  0
    7.8736   46.1234   54.7714 H   0  0  0  0  0  0  0  0  0  0  0  0
    8.6504   44.1834   53.3590 H   0  0  0  0  0  0  0  0  0  0  0  0
    7.4213   45.2998   52.6326 H   0  0  0  0  0  0  0  0  0  0  0  0
   10.4189   45.3016   52.0797 H   0  0  0  0  0  0  0  0  0  0  0  0
    9.1040   44.7059   50.9831 H   0  0  0  0  0  0  0  0  0  0  0  0
    9.9314   46.9781   50.3903 H   0  0  0  0  0  0  0  0  0  0  0  0
    8.1650   46.9131   50.8255 H   0  0  0  0  0  0  0  0  0  0  0  0
   10.4809   48.0377   52.4069 H   0  0  0  0  0  0  0  0  0  0  0  0
    8.9054   48.8177   51.8398 H   0  0  0  0  0  0  0  0  0  0  0  0
    3.5064   44.5846   54.5910 H   0  0  0  0  0  0  0  0  0  0  0  0
    2.6615   43.8953   57.0501 H   0  0  0  0  0  0  0  0  0  0  0  0
    0.8244   42.5538   58.0609 H   0  0  0  0  0  0  0  0  0  0  0  0
   -1.3269   42.2555   56.8310 H   0  0  0  0  0  0  0  0  0  0  0  0
   -1.6278   43.3075   54.5910 H   0  0  0  0  0  0  0  0  0  0  0  0
    0.2119   44.6468   53.5743 H   0  0  0  0  0  0  0  0  0  0  0  0
  1  2  1  0
  2  3  1  0
  3  4  2  0
  4  5  1  0
  5  6  1  0
  6  7  1  0
  7  8  1  0
  8  9  1  0
  9 10  1  0
 10 11  1  0
  4 12  1  0
 12 13  1  0
 13 14  1  0
 14 15  2  0
 14 16  1  0
 16 17  1  0
 17 18  2  0
 18 19  1  0
 19 20  2  0
 20 21  1  0
 21 22  2  0
 13  2  2  0
 22 17  1  0
 11  6  1  0
  1 23  1  0
  1 24  1  0
  1 25  1  0
  5 26  1  0
  6 27  1  0
  7 28  1  0
  7 29  1  0
  8 30  1  0
  8 31  1  0
  9 32  1  0
  9 33  1  0
 10 34  1  0
 10 35  1  0
 11 36  1  0
 11 37  1  0
 16 38  1  0
 18 39  1  0
 19 40  1  0
 20 41  1  0
 21 42  1  0
 22 43  1  0
M  END
>  <meeko>  (422) 
{"is_sidechain": false}

>  <CID>  (422) 
Z48858335

>  <pose_index>  (422) 
8

>  <docking_score>  (422) 
-8.026

>  <rmsd_to_best_selected>  (422) 
1.4557925628764126

>  <MWT>  (422) 
315.44199999999967

>  <TPSA>  (422) 
54.02

>  <logP>  (422) 
4.448420000000003

>  <HBD>  (422) 
2

>  <HBA>  (422) 
4

>  <SMILES>  (422) 
[H]c1c([H])c([H])c(N([H])C(=O)c2sc(N([H])C3([H])C([H])([H])C([H])([H])C([H])([H])C([H])([H])C3([H])[H])nc2C([H])([H])[H])c([H])c1[H]

$$$$
Z48861625_pose10
     RDKit          3D

 44 46  0  0  0  0  0  0  0  0999 V2000
   11.9079   47.8322   54.6767 C   0  0  0  0  0  0  0  0  0  0  0  0
   10.8653   47.3368   55.6640 C   0  0  0  0  0  0  0  0  0  0  0  0
    9.6274   48.0218   55.4795 O   0  0  0  0  0  0  0  0  0  0  0  0
    8.7663   47.5811   54.5160 C   0  0  0  0  0  0  0  0  0  0  0  0
    8.5316   46.2061   54.5333 C   0  0  0  0  0  0  0  0  0  0  0  0
    7.6689   45.6182   53.6035 C   0  0  0  0  0  0  0  0  0  0  0  0
    7.0149   46.3881   52.6330 C   0  0  0  0  0  0  0  0  0  0  0  0
    6.1359   45.7339   51.7495 N   0  0  0  0  0  0  0  0  0  0  0  0
    4.8367   45.3945   51.9105 C   0  0  0  0  0  0  0  0  0  0  0  0
    3.9535   45.6192   50.9639 N   0  0  0  0  0  0  0  0  0  0  0  0
    2.6986   45.1459   51.3212 C   0  0  0  0  0  0  0  0  0  0  0  0
    1.5763   45.3539   50.3669 C   0  0  0  0  0  0  0  0  0  0  0  0
    2.6424   44.5129   52.5529 C   0  0  0  0  0  0  0  0  0  0  0  0
    1.4867   43.9088   53.2081 C   0  0  0  0  0  0  0  0  0  0  0  0
    0.9457   42.9070   52.7500 O   0  0  0  0  0  0  0  0  0  0  0  0
    1.0760   44.5563   54.3622 N   0  0  0  0  0  0  0  0  0  0  0  0
    0.0020   44.2328   55.2147 C   0  0  0  0  0  0  0  0  0  0  0  0
   -1.3245   44.6016   54.9849 C   0  0  0  0  0  0  0  0  0  0  0  0
   -2.3284   44.2362   55.8887 C   0  0  0  0  0  0  0  0  0  0  0  0
   -2.0155   43.5014   57.0289 C   0  0  0  0  0  0  0  0  0  0  0  0
   -0.6962   43.1286   57.2681 C   0  0  0  0  0  0  0  0  0  0  0  0
    0.3073   43.4928   56.3662 C   0  0  0  0  0  0  0  0  0  0  0  0
    4.2073   44.5227   53.2574 S   0  0  0  0  0  0  0  0  0  0  0  0
    7.2504   47.7673   52.6311 C   0  0  0  0  0  0  0  0  0  0  0  0
    8.1183   48.3605   53.5611 C   0  0  0  0  0  0  0  0  0  0  0  0
   12.6640   47.0492   54.5182 H   0  0  0  0  0  0  0  0  0  0  0  0
   11.4218   48.0717   53.7194 H   0  0  0  0  0  0  0  0  0  0  0  0
   12.3929   48.7345   55.0775 H   0  0  0  0  0  0  0  0  0  0  0  0
   10.7073   46.2590   55.5113 H   0  0  0  0  0  0  0  0  0  0  0  0
   11.2264   47.5299   56.6849 H   0  0  0  0  0  0  0  0  0  0  0  0
    9.0304   45.5782   55.2862 H   0  0  0  0  0  0  0  0  0  0  0  0
    7.5006   44.5316   53.6346 H   0  0  0  0  0  0  0  0  0  0  0  0
    6.4082   45.8558   50.7795 H   0  0  0  0  0  0  0  0  0  0  0  0
    0.8702   44.5138   50.4425 H   0  0  0  0  0  0  0  0  0  0  0  0
    1.0569   46.2925   50.6106 H   0  0  0  0  0  0  0  0  0  0  0  0
    1.9719   45.4093   49.3420 H   0  0  0  0  0  0  0  0  0  0  0  0
    1.6251   45.3644   54.6256 H   0  0  0  0  0  0  0  0  0  0  0  0
   -1.5823   45.1833   54.0876 H   0  0  0  0  0  0  0  0  0  0  0  0
   -3.3707   44.5311   55.6970 H   0  0  0  0  0  0  0  0  0  0  0  0
   -2.8073   43.2168   57.7375 H   0  0  0  0  0  0  0  0  0  0  0  0
   -0.4433   42.5472   58.1670 H   0  0  0  0  0  0  0  0  0  0  0  0
    1.3482   43.1958   56.5617 H   0  0  0  0  0  0  0  0  0  0  0  0
    6.7453   48.3994   51.8858 H   0  0  0  0  0  0  0  0  0  0  0  0
    8.2876   49.4471   53.5355 H   0  0  0  0  0  0  0  0  0  0  0  0
  1  2  1  0
  2  3  1  0
  3  4  1  0
  4  5  2  0
  5  6  1  0
  6  7  2  0
  7  8  1  0
  8  9  1  0
  9 10  2  0
 10 11  1  0
 11 12  1  0
 11 13  2  0
 13 14  1  0
 14 15  2  0
 14 16  1  0
 16 17  1  0
 17 18  2  0
 18 19  1  0
 19 20  2  0
 20 21  1  0
 21 22  2  0
 13 23  1  0
  7 24  1  0
 24 25  2  0
 25  4  1  0
 23  9  1  0
 22 17  1  0
  1 26  1  0
  1 27  1  0
  1 28  1  0
  2 29  1  0
  2 30  1  0
  5 31  1  0
  6 32  1  0
  8 33  1  0
 12 34  1  0
 12 35  1  0
 12 36  1  0
 16 37  1  0
 18 38  1  0
 19 39  1  0
 20 40  1  0
 21 41  1  0
 22 42  1  0
 24 43  1  0
 25 44  1  0
M  END
>  <meeko>  (423) 
{"is_sidechain": false}

>  <CID>  (423) 
Z48861625

>  <pose_index>  (423) 
10

>  <docking_score>  (423) 
-7.332

>  <rmsd_to_best_selected>  (423) 
1.8459493796178867

>  <MWT>  (423) 
353.44699999999966

>  <TPSA>  (423) 
63.25

>  <logP>  (423) 
4.8461200000000035

>  <HBD>  (423) 
2

>  <HBA>  (423) 
5

>  <SMILES>  (423) 
[H]c1c([H])c([H])c(N([H])C(=O)c2sc(N([H])c3c([H])c([H])c(OC([H])([H])C([H])([H])[H])c([H])c3[H])nc2C([H])([H])[H])c([H])c1[H]

$$$$
Z48861625_pose1
     RDKit          3D

 44 46  0  0  0  0  0  0  0  0999 V2000
   11.2250   47.5000   56.4700 C   0  0  0  0  0  0  0  0  0  0  0  0
   10.1200   47.7500   55.4590 C   0  0  0  0  0  0  0  0  0  0  0  0
   10.4240   47.1290   54.2110 O   0  0  0  0  0  0  0  0  0  0  0  0
    9.4060   46.8640   53.3410 C   0  0  0  0  0  0  0  0  0  0  0  0
    8.1490   46.7540   53.9350 C   0  0  0  0  0  0  0  0  0  0  0  0
    7.0150   46.4870   53.1620 C   0  0  0  0  0  0  0  0  0  0  0  0
    7.1060   46.3260   51.7740 C   0  0  0  0  0  0  0  0  0  0  0  0
    5.9190   46.0910   51.0540 N   0  0  0  0  0  0  0  0  0  0  0  0
    4.7240   45.6230   51.4800 C   0  0  0  0  0  0  0  0  0  0  0  0
    4.4820   44.3340   51.5400 N   0  0  0  0  0  0  0  0  0  0  0  0
    3.2170   44.0800   52.0510 C   0  0  0  0  0  0  0  0  0  0  0  0
    2.7760   42.6620   52.1540 C   0  0  0  0  0  0  0  0  0  0  0  0
    2.5010   45.2080   52.4220 C   0  0  0  0  0  0  0  0  0  0  0  0
    1.1590   45.2810   52.9910 C   0  0  0  0  0  0  0  0  0  0  0  0
    0.2160   45.7260   52.3450 O   0  0  0  0  0  0  0  0  0  0  0  0
    1.0580   44.8090   54.2900 N   0  0  0  0  0  0  0  0  0  0  0  0
   -0.0830   44.7460   55.1150 C   0  0  0  0  0  0  0  0  0  0  0  0
   -1.1440   43.8600   54.9240 C   0  0  0  0  0  0  0  0  0  0  0  0
   -2.2400   43.8680   55.7950 C   0  0  0  0  0  0  0  0  0  0  0  0
   -2.2850   44.7620   56.8610 C   0  0  0  0  0  0  0  0  0  0  0  0
   -1.2320   45.6510   57.0610 C   0  0  0  0  0  0  0  0  0  0  0  0
   -0.1380   45.6430   56.1920 C   0  0  0  0  0  0  0  0  0  0  0  0
    3.4550   46.6010   52.1150 S   0  0  0  0  0  0  0  0  0  0  0  0
    8.3700   46.4480   51.1870 C   0  0  0  0  0  0  0  0  0  0  0  0
    9.5110   46.7120   51.9610 C   0  0  0  0  0  0  0  0  0  0  0  0
   10.8183   47.5920   57.4879 H   0  0  0  0  0  0  0  0  0  0  0  0
   11.6304   46.4874   56.3272 H   0  0  0  0  0  0  0  0  0  0  0  0
   12.0268   48.2394   56.3272 H   0  0  0  0  0  0  0  0  0  0  0  0
    9.1768   47.3376   55.8466 H   0  0  0  0  0  0  0  0  0  0  0  0
   10.0273   48.8344   55.2995 H   0  0  0  0  0  0  0  0  0  0  0  0
    8.0487   46.8786   55.0233 H   0  0  0  0  0  0  0  0  0  0  0  0
    6.0342   46.4019   53.6528 H   0  0  0  0  0  0  0  0  0  0  0  0
    5.8580   46.6650   50.2190 H   0  0  0  0  0  0  0  0  0  0  0  0
    2.6887   42.3812   53.2140 H   0  0  0  0  0  0  0  0  0  0  0  0
    1.7991   42.5452   51.6621 H   0  0  0  0  0  0  0  0  0  0  0  0
    3.5143   42.0117   51.6621 H   0  0  0  0  0  0  0  0  0  0  0  0
    1.9180   44.4590   54.6940 H   0  0  0  0  0  0  0  0  0  0  0  0
   -1.1191   43.1507   54.0836 H   0  0  0  0  0  0  0  0  0  0  0  0
   -3.0701   43.1640   55.6361 H   0  0  0  0  0  0  0  0  0  0  0  0
   -3.1485   44.7662   57.5424 H   0  0  0  0  0  0  0  0  0  0  0  0
   -1.2615   46.3589   57.9024 H   0  0  0  0  0  0  0  0  0  0  0  0
    0.6901   46.3486   56.3544 H   0  0  0  0  0  0  0  0  0  0  0  0
    8.4718   46.3348   50.0976 H   0  0  0  0  0  0  0  0  0  0  0  0
   10.4937   46.7993   51.4744 H   0  0  0  0  0  0  0  0  0  0  0  0
  1  2  1  0
  2  3  1  0
  3  4  1  0
  4  5  2  0
  5  6  1  0
  6  7  2  0
  7  8  1  0
  8  9  1  0
  9 10  2  0
 10 11  1  0
 11 12  1  0
 11 13  2  0
 13 14  1  0
 14 15  2  0
 14 16  1  0
 16 17  1  0
 17 18  2  0
 18 19  1  0
 19 20  2  0
 20 21  1  0
 21 22  2  0
 13 23  1  0
  7 24  1  0
 24 25  2  0
 25  4  1  0
 23  9  1  0
 22 17  1  0
  1 26  1  0
  1 27  1  0
  1 28  1  0
  2 29  1  0
  2 30  1  0
  5 31  1  0
  6 32  1  0
  8 33  1  0
 12 34  1  0
 12 35  1  0
 12 36  1  0
 16 37  1  0
 18 38  1  0
 19 39  1  0
 20 40  1  0
 21 41  1  0
 22 42  1  0
 24 43  1  0
 25 44  1  0
M  END
>  <meeko>  (424) 
{"is_sidechain": false}

>  <CID>  (424) 
Z48861625

>  <pose_index>  (424) 
1

>  <docking_score>  (424) 
-8.011

>  <rmsd_to_best_selected>  (424) 
0.0

>  <MWT>  (424) 
353.44699999999966

>  <TPSA>  (424) 
63.25

>  <logP>  (424) 
4.8461200000000035

>  <HBD>  (424) 
2

>  <HBA>  (424) 
5

>  <SMILES>  (424) 
[H]c1c([H])c([H])c(N([H])C(=O)c2sc(N([H])c3c([H])c([H])c(OC([H])([H])C([H])([H])[H])c([H])c3[H])nc2C([H])([H])[H])c([H])c1[H]

$$$$
Z48861625_pose4
     RDKit          3D

 44 46  0  0  0  0  0  0  0  0999 V2000
   12.3391   46.4972   55.4083 C   0  0  0  0  0  0  0  0  0  0  0  0
   10.9438   47.0556   55.1958 C   0  0  0  0  0  0  0  0  0  0  0  0
   10.7665   47.4788   53.8452 O   0  0  0  0  0  0  0  0  0  0  0  0
    9.5224   47.4014   53.2864 C   0  0  0  0  0  0  0  0  0  0  0  0
    8.4826   47.2629   54.2055 C   0  0  0  0  0  0  0  0  0  0  0  0
    7.1565   47.1743   53.7733 C   0  0  0  0  0  0  0  0  0  0  0  0
    6.8330   47.2240   52.4105 C   0  0  0  0  0  0  0  0  0  0  0  0
    5.4740   47.1605   52.0488 N   0  0  0  0  0  0  0  0  0  0  0  0
    4.5226   46.2662   52.4004 C   0  0  0  0  0  0  0  0  0  0  0  0
    4.3623   45.1477   51.7302 N   0  0  0  0  0  0  0  0  0  0  0  0
    3.3687   44.3600   52.2938 C   0  0  0  0  0  0  0  0  0  0  0  0
    3.0409   43.0685   51.6306 C   0  0  0  0  0  0  0  0  0  0  0  0
    2.7908   44.8800   53.4413 C   0  0  0  0  0  0  0  0  0  0  0  0
    1.7350   44.3026   54.2652 C   0  0  0  0  0  0  0  0  0  0  0  0
    1.9308   43.2961   54.9407 O   0  0  0  0  0  0  0  0  0  0  0  0
    0.5276   44.9811   54.2128 N   0  0  0  0  0  0  0  0  0  0  0  0
   -0.6772   44.6823   54.8790 C   0  0  0  0  0  0  0  0  0  0  0  0
   -1.7626   44.0302   54.2890 C   0  0  0  0  0  0  0  0  0  0  0  0
   -2.9218   43.7747   55.0283 C   0  0  0  0  0  0  0  0  0  0  0  0
   -3.0087   44.1673   56.3615 C   0  0  0  0  0  0  0  0  0  0  0  0
   -1.9334   44.8172   56.9599 C   0  0  0  0  0  0  0  0  0  0  0  0
   -0.7745   45.0739   56.2228 C   0  0  0  0  0  0  0  0  0  0  0  0
    3.5272   46.3885   53.8014 S   0  0  0  0  0  0  0  0  0  0  0  0
    7.8832   47.3719   51.4991 C   0  0  0  0  0  0  0  0  0  0  0  0
    9.2168   47.4590   51.9301 C   0  0  0  0  0  0  0  0  0  0  0  0
   12.4027   46.0394   56.4065 H   0  0  0  0  0  0  0  0  0  0  0  0
   12.5503   45.7368   54.6420 H   0  0  0  0  0  0  0  0  0  0  0  0
   13.0754   47.3107   55.3303 H   0  0  0  0  0  0  0  0  0  0  0  0
   10.2040   46.2757   55.4291 H   0  0  0  0  0  0  0  0  0  0  0  0
   10.8075   47.9237   55.8575 H   0  0  0  0  0  0  0  0  0  0  0  0
    8.7085   47.2229   55.2813 H   0  0  0  0  0  0  0  0  0  0  0  0
    6.3524   47.0637   54.5157 H   0  0  0  0  0  0  0  0  0  0  0  0
    5.1034   48.0700   51.7926 H   0  0  0  0  0  0  0  0  0  0  0  0
    3.4146   42.2358   52.2445 H   0  0  0  0  0  0  0  0  0  0  0  0
    1.9502   42.9805   51.5183 H   0  0  0  0  0  0  0  0  0  0  0  0
    3.5155   43.0347   50.6389 H   0  0  0  0  0  0  0  0  0  0  0  0
    0.5165   45.8026   53.6212 H   0  0  0  0  0  0  0  0  0  0  0  0
   -1.7052   43.7158   53.2365 H   0  0  0  0  0  0  0  0  0  0  0  0
   -3.7703   43.2601   54.5537 H   0  0  0  0  0  0  0  0  0  0  0  0
   -3.9229   43.9648   56.9388 H   0  0  0  0  0  0  0  0  0  0  0  0
   -1.9958   45.1288   58.0130 H   0  0  0  0  0  0  0  0  0  0  0  0
    0.0713   45.5889   56.7016 H   0  0  0  0  0  0  0  0  0  0  0  0
    7.6602   47.4209   50.4231 H   0  0  0  0  0  0  0  0  0  0  0  0
   10.0241   47.5734   51.1916 H   0  0  0  0  0  0  0  0  0  0  0  0
  1  2  1  0
  2  3  1  0
  3  4  1  0
  4  5  2  0
  5  6  1  0
  6  7  2  0
  7  8  1  0
  8  9  1  0
  9 10  2  0
 10 11  1  0
 11 12  1  0
 11 13  2  0
 13 14  1  0
 14 15  2  0
 14 16  1  0
 16 17  1  0
 17 18  2  0
 18 19  1  0
 19 20  2  0
 20 21  1  0
 21 22  2  0
 13 23  1  0
  7 24  1  0
 24 25  2  0
 25  4  1  0
 23  9  1  0
 22 17  1  0
  1 26  1  0
  1 27  1  0
  1 28  1  0
  2 29  1  0
  2 30  1  0
  5 31  1  0
  6 32  1  0
  8 33  1  0
 12 34  1  0
 12 35  1  0
 12 36  1  0
 16 37  1  0
 18 38  1  0
 19 39  1  0
 20 40  1  0
 21 41  1  0
 22 42  1  0
 24 43  1  0
 25 44  1  0
M  END
>  <meeko>  (425) 
{"is_sidechain": false}

>  <CID>  (425) 
Z48861625

>  <pose_index>  (425) 
4

>  <docking_score>  (425) 
-7.699

>  <rmsd_to_best_selected>  (425) 
1.1861069825864956

>  <MWT>  (425) 
353.44699999999966

>  <TPSA>  (425) 
63.25

>  <logP>  (425) 
4.8461200000000035

>  <HBD>  (425) 
2

>  <HBA>  (425) 
5

>  <SMILES>  (425) 
[H]c1c([H])c([H])c(N([H])C(=O)c2sc(N([H])c3c([H])c([H])c(OC([H])([H])C([H])([H])[H])c([H])c3[H])nc2C([H])([H])[H])c([H])c1[H]

$$$$
Z48861625_pose5
     RDKit          3D

 44 46  0  0  0  0  0  0  0  0999 V2000
   12.2081   46.9333   56.0725 C   0  0  0  0  0  0  0  0  0  0  0  0
   11.0540   47.5429   55.2967 C   0  0  0  0  0  0  0  0  0  0  0  0
   10.6347   46.6749   54.2440 O   0  0  0  0  0  0  0  0  0  0  0  0
    9.3745   46.8130   53.7376 C   0  0  0  0  0  0  0  0  0  0  0  0
    9.1520   46.1277   52.5432 C   0  0  0  0  0  0  0  0  0  0  0  0
    7.9048   46.1767   51.9136 C   0  0  0  0  0  0  0  0  0  0  0  0
    6.8453   46.9116   52.4618 C   0  0  0  0  0  0  0  0  0  0  0  0
    5.6081   46.8921   51.7909 N   0  0  0  0  0  0  0  0  0  0  0  0
    4.5170   46.1208   52.0028 C   0  0  0  0  0  0  0  0  0  0  0  0
    3.9556   45.4534   51.0210 N   0  0  0  0  0  0  0  0  0  0  0  0
    2.8869   44.6934   51.4731 C   0  0  0  0  0  0  0  0  0  0  0  0
    2.1205   43.9007   50.4729 C   0  0  0  0  0  0  0  0  0  0  0  0
    2.6611   44.7579   52.8391 C   0  0  0  0  0  0  0  0  0  0  0  0
    1.6299   44.0807   53.6186 C   0  0  0  0  0  0  0  0  0  0  0  0
    1.5772   42.8565   53.6787 O   0  0  0  0  0  0  0  0  0  0  0  0
    0.7471   44.9307   54.2660 N   0  0  0  0  0  0  0  0  0  0  0  0
   -0.3503   44.5977   55.0852 C   0  0  0  0  0  0  0  0  0  0  0  0
   -1.3634   43.7097   54.7199 C   0  0  0  0  0  0  0  0  0  0  0  0
   -2.4178   43.4379   55.5988 C   0  0  0  0  0  0  0  0  0  0  0  0
   -2.4701   44.0505   56.8478 C   0  0  0  0  0  0  0  0  0  0  0  0
   -1.4647   44.9377   57.2219 C   0  0  0  0  0  0  0  0  0  0  0  0
   -0.4111   45.2102   56.3452 C   0  0  0  0  0  0  0  0  0  0  0  0
    3.8260   45.7996   53.5482 S   0  0  0  0  0  0  0  0  0  0  0  0
    7.0774   47.5873   53.6644 C   0  0  0  0  0  0  0  0  0  0  0  0
    8.3291   47.5417   54.2977 C   0  0  0  0  0  0  0  0  0  0  0  0
   12.8064   47.7350   56.5301 H   0  0  0  0  0  0  0  0  0  0  0  0
   11.8131   46.2752   56.8605 H   0  0  0  0  0  0  0  0  0  0  0  0
   12.8408   46.3481   55.3890 H   0  0  0  0  0  0  0  0  0  0  0  0
   10.2098   47.7134   55.9810 H   0  0  0  0  0  0  0  0  0  0  0  0
   11.3890   48.4937   54.8566 H   0  0  0  0  0  0  0  0  0  0  0  0
    9.9667   45.5425   52.0918 H   0  0  0  0  0  0  0  0  0  0  0  0
    7.7527   45.6289   50.9719 H   0  0  0  0  0  0  0  0  0  0  0  0
    5.3990   47.7803   51.3479 H   0  0  0  0  0  0  0  0  0  0  0  0
    1.8575   44.5432   49.6196 H   0  0  0  0  0  0  0  0  0  0  0  0
    2.7362   43.0593   50.1222 H   0  0  0  0  0  0  0  0  0  0  0  0
    1.2016   43.5140   50.9377 H   0  0  0  0  0  0  0  0  0  0  0  0
    0.9207   45.9195   54.1358 H   0  0  0  0  0  0  0  0  0  0  0  0
   -1.3328   43.2206   53.7351 H   0  0  0  0  0  0  0  0  0  0  0  0
   -3.2103   42.7356   55.3009 H   0  0  0  0  0  0  0  0  0  0  0  0
   -3.3013   43.8348   57.5353 H   0  0  0  0  0  0  0  0  0  0  0  0
   -1.4995   45.4243   58.2078 H   0  0  0  0  0  0  0  0  0  0  0  0
    0.3794   45.9131   56.6469 H   0  0  0  0  0  0  0  0  0  0  0  0
    6.2623   48.1663   54.1231 H   0  0  0  0  0  0  0  0  0  0  0  0
    8.4849   48.0846   55.2416 H   0  0  0  0  0  0  0  0  0  0  0  0
  1  2  1  0
  2  3  1  0
  3  4  1  0
  4  5  2  0
  5  6  1  0
  6  7  2  0
  7  8  1  0
  8  9  1  0
  9 10  2  0
 10 11  1  0
 11 12  1  0
 11 13  2  0
 13 14  1  0
 14 15  2  0
 14 16  1  0
 16 17  1  0
 17 18  2  0
 18 19  1  0
 19 20  2  0
 20 21  1  0
 21 22  2  0
 13 23  1  0
  7 24  1  0
 24 25  2  0
 25  4  1  0
 23  9  1  0
 22 17  1  0
  1 26  1  0
  1 27  1  0
  1 28  1  0
  2 29  1  0
  2 30  1  0
  5 31  1  0
  6 32  1  0
  8 33  1  0
 12 34  1  0
 12 35  1  0
 12 36  1  0
 16 37  1  0
 18 38  1  0
 19 39  1  0
 20 40  1  0
 21 41  1  0
 22 42  1  0
 24 43  1  0
 25 44  1  0
M  END
>  <meeko>  (426) 
{"is_sidechain": false}

>  <CID>  (426) 
Z48861625

>  <pose_index>  (426) 
5

>  <docking_score>  (426) 
-7.664

>  <rmsd_to_best_selected>  (426) 
1.2348054882274466

>  <MWT>  (426) 
353.44699999999966

>  <TPSA>  (426) 
63.25

>  <logP>  (426) 
4.8461200000000035

>  <HBD>  (426) 
2

>  <HBA>  (426) 
5

>  <SMILES>  (426) 
[H]c1c([H])c([H])c(N([H])C(=O)c2sc(N([H])c3c([H])c([H])c(OC([H])([H])C([H])([H])[H])c([H])c3[H])nc2C([H])([H])[H])c([H])c1[H]

$$$$
Z48861625_pose8
     RDKit          3D

 44 46  0  0  0  0  0  0  0  0999 V2000
   12.1423   47.5621   55.5379 C   0  0  0  0  0  0  0  0  0  0  0  0
   11.2147   46.5747   54.8513 C   0  0  0  0  0  0  0  0  0  0  0  0
   10.9467   46.9797   53.5093 O   0  0  0  0  0  0  0  0  0  0  0  0
    9.6487   47.0723   53.0948 C   0  0  0  0  0  0  0  0  0  0  0  0
    8.7032   46.8864   54.1036 C   0  0  0  0  0  0  0  0  0  0  0  0
    7.3362   46.9579   53.8220 C   0  0  0  0  0  0  0  0  0  0  0  0
    6.8759   47.2193   52.5237 C   0  0  0  0  0  0  0  0  0  0  0  0
    5.4862   47.3081   52.3187 N   0  0  0  0  0  0  0  0  0  0  0  0
    4.5092   46.4148   52.5941 C   0  0  0  0  0  0  0  0  0  0  0  0
    4.1956   45.4666   51.7416 N   0  0  0  0  0  0  0  0  0  0  0  0
    3.2054   44.6376   52.2504 C   0  0  0  0  0  0  0  0  0  0  0  0
    2.7141   43.5274   51.3890 C   0  0  0  0  0  0  0  0  0  0  0  0
    2.7892   44.9461   53.5356 C   0  0  0  0  0  0  0  0  0  0  0  0
    1.7792   44.2730   54.3456 C   0  0  0  0  0  0  0  0  0  0  0  0
    2.0211   43.2132   54.9164 O   0  0  0  0  0  0  0  0  0  0  0  0
    0.5598   44.9285   54.4067 N   0  0  0  0  0  0  0  0  0  0  0  0
   -0.6105   44.5439   55.0920 C   0  0  0  0  0  0  0  0  0  0  0  0
   -0.8003   44.6888   56.4664 C   0  0  0  0  0  0  0  0  0  0  0  0
   -1.9974   44.2780   57.0634 C   0  0  0  0  0  0  0  0  0  0  0  0
   -3.0131   43.7184   56.2933 C   0  0  0  0  0  0  0  0  0  0  0  0
   -2.8339   43.5690   54.9208 C   0  0  0  0  0  0  0  0  0  0  0  0
   -1.6393   43.9786   54.3236 C   0  0  0  0  0  0  0  0  0  0  0  0
    3.6721   46.3064   54.0964 S   0  0  0  0  0  0  0  0  0  0  0  0
    7.8337   47.4126   51.5226 C   0  0  0  0  0  0  0  0  0  0  0  0
    9.2067   47.3387   51.8024 C   0  0  0  0  0  0  0  0  0  0  0  0
   11.8348   47.6855   56.5868 H   0  0  0  0  0  0  0  0  0  0  0  0
   13.1741   47.1827   55.5005 H   0  0  0  0  0  0  0  0  0  0  0  0
   12.0897   48.5330   55.0237 H   0  0  0  0  0  0  0  0  0  0  0  0
   11.6887   45.5821   54.8405 H   0  0  0  0  0  0  0  0  0  0  0  0
   10.2649   46.5396   55.4051 H   0  0  0  0  0  0  0  0  0  0  0  0
    9.0371   46.6814   55.1315 H   0  0  0  0  0  0  0  0  0  0  0  0
    6.6087   46.8064   54.6330 H   0  0  0  0  0  0  0  0  0  0  0  0
    5.1643   48.2702   52.2939 H   0  0  0  0  0  0  0  0  0  0  0  0
    3.1674   42.5804   51.7173 H   0  0  0  0  0  0  0  0  0  0  0  0
    1.6193   43.4573   51.4701 H   0  0  0  0  0  0  0  0  0  0  0  0
    2.9925   43.7240   50.3431 H   0  0  0  0  0  0  0  0  0  0  0  0
    0.5088   45.7999   53.8944 H   0  0  0  0  0  0  0  0  0  0  0  0
   -0.0039   45.1286   57.0848 H   0  0  0  0  0  0  0  0  0  0  0  0
   -2.1367   44.3980   58.1479 H   0  0  0  0  0  0  0  0  0  0  0  0
   -3.9522   43.3959   56.7667 H   0  0  0  0  0  0  0  0  0  0  0  0
   -3.6331   43.1285   54.3066 H   0  0  0  0  0  0  0  0  0  0  0  0
   -1.5038   43.8566   53.2388 H   0  0  0  0  0  0  0  0  0  0  0  0
    7.5038   47.6268   50.4953 H   0  0  0  0  0  0  0  0  0  0  0  0
    9.9381   47.4923   50.9953 H   0  0  0  0  0  0  0  0  0  0  0  0
  1  2  1  0
  2  3  1  0
  3  4  1  0
  4  5  2  0
  5  6  1  0
  6  7  2  0
  7  8  1  0
  8  9  1  0
  9 10  2  0
 10 11  1  0
 11 12  1  0
 11 13  2  0
 13 14  1  0
 14 15  2  0
 14 16  1  0
 16 17  1  0
 17 18  2  0
 18 19  1  0
 19 20  2  0
 20 21  1  0
 21 22  2  0
 13 23  1  0
  7 24  1  0
 24 25  2  0
 25  4  1  0
 23  9  1  0
 22 17  1  0
  1 26  1  0
  1 27  1  0
  1 28  1  0
  2 29  1  0
  2 30  1  0
  5 31  1  0
  6 32  1  0
  8 33  1  0
 12 34  1  0
 12 35  1  0
 12 36  1  0
 16 37  1  0
 18 38  1  0
 19 39  1  0
 20 40  1  0
 21 41  1  0
 22 42  1  0
 24 43  1  0
 25 44  1  0
M  END
>  <meeko>  (427) 
{"is_sidechain": false}

>  <CID>  (427) 
Z48861625

>  <pose_index>  (427) 
8

>  <docking_score>  (427) 
-7.465

>  <rmsd_to_best_selected>  (427) 
1.353836725707469

>  <MWT>  (427) 
353.44699999999966

>  <TPSA>  (427) 
63.25

>  <logP>  (427) 
4.8461200000000035

>  <HBD>  (427) 
2

>  <HBA>  (427) 
5

>  <SMILES>  (427) 
[H]c1c([H])c([H])c(N([H])C(=O)c2sc(N([H])c3c([H])c([H])c(OC([H])([H])C([H])([H])[H])c([H])c3[H])nc2C([H])([H])[H])c([H])c1[H]

$$$$
Z48861625_pose9
     RDKit          3D

 44 46  0  0  0  0  0  0  0  0999 V2000
   10.5529   47.6371   56.7483 C   0  0  0  0  0  0  0  0  0  0  0  0
   10.7545   46.8371   55.4747 C   0  0  0  0  0  0  0  0  0  0  0  0
   10.3740   47.5991   54.3302 O   0  0  0  0  0  0  0  0  0  0  0  0
    9.2355   47.2567   53.6584 C   0  0  0  0  0  0  0  0  0  0  0  0
    9.4535   46.6256   52.4332 C   0  0  0  0  0  0  0  0  0  0  0  0
    8.3773   46.2167   51.6396 C   0  0  0  0  0  0  0  0  0  0  0  0
    7.0539   46.4243   52.0504 C   0  0  0  0  0  0  0  0  0  0  0  0
    6.0205   45.9590   51.2161 N   0  0  0  0  0  0  0  0  0  0  0  0
    4.7695   45.5511   51.5284 C   0  0  0  0  0  0  0  0  0  0  0  0
    3.7883   45.6422   50.6600 N   0  0  0  0  0  0  0  0  0  0  0  0
    2.6092   45.1209   51.1729 C   0  0  0  0  0  0  0  0  0  0  0  0
    1.3909   45.1784   50.3207 C   0  0  0  0  0  0  0  0  0  0  0  0
    2.7135   44.5869   52.4484 C   0  0  0  0  0  0  0  0  0  0  0  0
    1.6698   43.9649   53.2565 C   0  0  0  0  0  0  0  0  0  0  0  0
    1.2300   42.8516   52.9840 O   0  0  0  0  0  0  0  0  0  0  0  0
    1.2407   44.7304   54.3289 N   0  0  0  0  0  0  0  0  0  0  0  0
    0.2546   44.4232   55.2878 C   0  0  0  0  0  0  0  0  0  0  0  0
   -0.8779   43.6476   55.0316 C   0  0  0  0  0  0  0  0  0  0  0  0
   -1.8069   43.3928   56.0461 C   0  0  0  0  0  0  0  0  0  0  0  0
   -1.6145   43.9117   57.3241 C   0  0  0  0  0  0  0  0  0  0  0  0
   -0.4890   44.6866   57.5911 C   0  0  0  0  0  0  0  0  0  0  0  0
    0.4395   44.9409   56.5778 C   0  0  0  0  0  0  0  0  0  0  0  0
    4.3324   44.7534   52.9919 S   0  0  0  0  0  0  0  0  0  0  0  0
    6.8476   47.0500   53.2840 C   0  0  0  0  0  0  0  0  0  0  0  0
    7.9260   47.4644   54.0813 C   0  0  0  0  0  0  0  0  0  0  0  0
   11.2813   48.4607   56.7832 H   0  0  0  0  0  0  0  0  0  0  0  0
    9.5330   48.0488   56.7651 H   0  0  0  0  0  0  0  0  0  0  0  0
   10.6983   46.9819   57.6198 H   0  0  0  0  0  0  0  0  0  0  0  0
   11.8156   46.5607   55.3870 H   0  0  0  0  0  0  0  0  0  0  0  0
   10.1257   45.9358   55.5221 H   0  0  0  0  0  0  0  0  0  0  0  0
   10.4827   46.4479   52.0880 H   0  0  0  0  0  0  0  0  0  0  0  0
    8.5730   45.7234   50.6760 H   0  0  0  0  0  0  0  0  0  0  0  0
    6.1111   46.3038   50.2656 H   0  0  0  0  0  0  0  0  0  0  0  0
    0.9429   46.1808   50.3886 H   0  0  0  0  0  0  0  0  0  0  0  0
    1.6640   44.9688   49.2759 H   0  0  0  0  0  0  0  0  0  0  0  0
    0.6650   44.4281   50.6675 H   0  0  0  0  0  0  0  0  0  0  0  0
    1.7030   45.6237   54.4379 H   0  0  0  0  0  0  0  0  0  0  0  0
   -1.0406   43.2342   54.0254 H   0  0  0  0  0  0  0  0  0  0  0  0
   -2.6945   42.7789   55.8331 H   0  0  0  0  0  0  0  0  0  0  0  0
   -2.3481   43.7104   58.1186 H   0  0  0  0  0  0  0  0  0  0  0  0
   -0.3307   45.0984   58.5987 H   0  0  0  0  0  0  0  0  0  0  0  0
    1.3261   45.5547   56.7949 H   0  0  0  0  0  0  0  0  0  0  0  0
    5.8197   47.2209   53.6365 H   0  0  0  0  0  0  0  0  0  0  0  0
    7.7349   47.9563   55.0464 H   0  0  0  0  0  0  0  0  0  0  0  0
  1  2  1  0
  2  3  1  0
  3  4  1  0
  4  5  2  0
  5  6  1  0
  6  7  2  0
  7  8  1  0
  8  9  1  0
  9 10  2  0
 10 11  1  0
 11 12  1  0
 11 13  2  0
 13 14  1  0
 14 15  2  0
 14 16  1  0
 16 17  1  0
 17 18  2  0
 18 19  1  0
 19 20  2  0
 20 21  1  0
 21 22  2  0
 13 23  1  0
  7 24  1  0
 24 25  2  0
 25  4  1  0
 23  9  1  0
 22 17  1  0
  1 26  1  0
  1 27  1  0
  1 28  1  0
  2 29  1  0
  2 30  1  0
  5 31  1  0
  6 32  1  0
  8 33  1  0
 12 34  1  0
 12 35  1  0
 12 36  1  0
 16 37  1  0
 18 38  1  0
 19 39  1  0
 20 40  1  0
 21 41  1  0
 22 42  1  0
 24 43  1  0
 25 44  1  0
M  END
>  <meeko>  (428) 
{"is_sidechain": false}

>  <CID>  (428) 
Z48861625

>  <pose_index>  (428) 
9

>  <docking_score>  (428) 
-7.438

>  <rmsd_to_best_selected>  (428) 
1.516596906484034

>  <MWT>  (428) 
353.44699999999966

>  <TPSA>  (428) 
63.25

>  <logP>  (428) 
4.8461200000000035

>  <HBD>  (428) 
2

>  <HBA>  (428) 
5

>  <SMILES>  (428) 
[H]c1c([H])c([H])c(N([H])C(=O)c2sc(N([H])c3c([H])c([H])c(OC([H])([H])C([H])([H])[H])c([H])c3[H])nc2C([H])([H])[H])c([H])c1[H]

$$$$
Z56840013_pose1
     RDKit          3D

 42 45  0  0  0  0  0  0  0  0999 V2000
    6.4040   41.6970   49.3380 N   0  0  0  0  0  0  0  0  0  0  0  0
    6.8810   42.9230   49.5980 C   0  0  0  0  0  0  0  0  0  0  0  0
    8.0300   43.3720   49.1010 N   0  0  0  0  0  0  0  0  0  0  0  0
    8.1120   44.6200   49.5840 N   0  0  0  0  0  0  0  0  0  0  0  0
    7.0720   44.9840   50.4040 C   0  0  0  0  0  0  0  0  0  0  0  0
    7.1070   46.1370   51.1180 N   0  0  0  0  0  0  0  0  0  0  0  0
    7.9860   46.4650   52.1710 C   0  0  0  0  0  0  0  0  0  0  0  0
    9.3690   46.4430   51.9390 C   0  0  0  0  0  0  0  0  0  0  0  0
   10.2720   46.7950   52.9450 C   0  0  0  0  0  0  0  0  0  0  0  0
    9.8040   47.1770   54.1990 C   0  0  0  0  0  0  0  0  0  0  0  0
    8.4340   47.2040   54.4480 C   0  0  0  0  0  0  0  0  0  0  0  0
    7.5330   46.8520   53.4390 C   0  0  0  0  0  0  0  0  0  0  0  0
    6.2260   43.8930   50.4040 C   0  0  0  0  0  0  0  0  0  0  0  0
    4.8570   43.6900   51.1300 C   0  0  0  0  0  0  0  0  0  0  0  0
    4.4420   42.4900   51.4930 N   0  0  0  0  0  0  0  0  0  0  0  0
    3.2770   42.6270   52.1950 N   0  0  0  0  0  0  0  0  0  0  0  0
    2.9510   43.9020   52.2060 C   0  0  0  0  0  0  0  0  0  0  0  0
    3.8920   44.6050   51.4840 N   0  0  0  0  0  0  0  0  0  0  0  0
    3.7990   45.9790   51.0370 C   0  0  0  0  0  0  0  0  0  0  0  0
    3.1300   46.9460   52.0120 C   0  0  0  0  0  0  0  0  0  0  0  0
    3.1710   46.4760   53.4650 C   0  0  0  0  0  0  0  0  0  0  0  0
    2.0200   45.5500   53.8830 C   0  0  0  0  0  0  0  0  0  0  0  0
    1.7330   44.4540   52.8640 C   0  0  0  0  0  0  0  0  0  0  0  0
    7.0740   40.9790   49.0960 H   0  0  0  0  0  0  0  0  0  0  0  0
    5.6080   41.3610   49.8800 H   0  0  0  0  0  0  0  0  0  0  0  0
    8.9420   45.1630   49.3760 H   0  0  0  0  0  0  0  0  0  0  0  0
    6.3110   46.7660   51.0460 H   0  0  0  0  0  0  0  0  0  0  0  0
    9.7481   46.1442   50.9506 H   0  0  0  0  0  0  0  0  0  0  0  0
   11.3536   46.7703   52.7461 H   0  0  0  0  0  0  0  0  0  0  0  0
   10.5142   47.4568   54.9911 H   0  0  0  0  0  0  0  0  0  0  0  0
    8.0609   47.5024   55.4389 H   0  0  0  0  0  0  0  0  0  0  0  0
    6.4525   46.8792   53.6435 H   0  0  0  0  0  0  0  0  0  0  0  0
    4.8194   46.3427   50.8462 H   0  0  0  0  0  0  0  0  0  0  0  0
    3.1586   45.9620   50.1428 H   0  0  0  0  0  0  0  0  0  0  0  0
    3.6431   47.9168   51.9460 H   0  0  0  0  0  0  0  0  0  0  0  0
    2.0703   47.0122   51.7243 H   0  0  0  0  0  0  0  0  0  0  0  0
    4.1166   45.9364   53.6220 H   0  0  0  0  0  0  0  0  0  0  0  0
    3.0753   47.3813   54.0825 H   0  0  0  0  0  0  0  0  0  0  0  0
    2.2817   45.0772   54.8411 H   0  0  0  0  0  0  0  0  0  0  0  0
    1.1141   46.1688   53.9623 H   0  0  0  0  0  0  0  0  0  0  0  0
    1.2149   43.6311   53.3782 H   0  0  0  0  0  0  0  0  0  0  0  0
    1.1225   44.9099   52.0707 H   0  0  0  0  0  0  0  0  0  0  0  0
  1  2  1  0
  2  3  2  0
  3  4  1  0
  4  5  1  0
  5  6  1  0
  6  7  1  0
  7  8  2  0
  8  9  1  0
  9 10  2  0
 10 11  1  0
 11 12  2  0
  5 13  2  0
 13 14  1  0
 14 15  2  0
 15 16  1  0
 16 17  2  0
 17 18  1  0
 18 19  1  0
 19 20  1  0
 20 21  1  0
 21 22  1  0
 22 23  1  0
 13  2  1  0
 18 14  1  0
 12  7  1  0
 23 17  1  0
  1 24  1  0
  1 25  1  0
  4 26  1  0
  6 27  1  0
  8 28  1  0
  9 29  1  0
 10 30  1  0
 11 31  1  0
 12 32  1  0
 19 33  1  0
 19 34  1  0
 20 35  1  0
 20 36  1  0
 21 37  1  0
 21 38  1  0
 22 39  1  0
 22 40  1  0
 23 41  1  0
 23 42  1  0
M  END
>  <meeko>  (429) 
{"is_sidechain": false}

>  <CID>  (429) 
Z56840013

>  <pose_index>  (429) 
1

>  <docking_score>  (429) 
-7.749

>  <rmsd_to_best_selected>  (429) 
0.0

>  <MWT>  (429) 
309.37699999999967

>  <TPSA>  (429) 
97.44

>  <logP>  (429) 
2.7204000000000006

>  <HBD>  (429) 
3

>  <HBA>  (429) 
6

>  <SMILES>  (429) 
[H]c1c([H])c([H])c(N([H])c2c(-c3nnc4n3C([H])([H])C([H])([H])C([H])([H])C([H])([H])C4([H])[H])c(N([H])[H])nn2[H])c([H])c1[H]

$$$$
Z56840013_pose3
     RDKit          3D

 42 45  0  0  0  0  0  0  0  0999 V2000
    6.0622   41.7773   49.3452 N   0  0  0  0  0  0  0  0  0  0  0  0
    6.7242   42.9319   49.5073 C   0  0  0  0  0  0  0  0  0  0  0  0
    8.0130   43.0755   49.2099 N   0  0  0  0  0  0  0  0  0  0  0  0
    8.2593   44.3608   49.4969 N   0  0  0  0  0  0  0  0  0  0  0  0
    7.1823   45.0485   50.0029 C   0  0  0  0  0  0  0  0  0  0  0  0
    7.3210   46.2953   50.5181 N   0  0  0  0  0  0  0  0  0  0  0  0
    8.0233   46.6669   51.6841 C   0  0  0  0  0  0  0  0  0  0  0  0
    7.3594   47.4034   52.6750 C   0  0  0  0  0  0  0  0  0  0  0  0
    8.0074   47.7614   53.8604 C   0  0  0  0  0  0  0  0  0  0  0  0
    9.3325   47.3856   54.0703 C   0  0  0  0  0  0  0  0  0  0  0  0
   10.0071   46.6540   53.0962 C   0  0  0  0  0  0  0  0  0  0  0  0
    9.3553   46.2972   51.9128 C   0  0  0  0  0  0  0  0  0  0  0  0
    6.1446   44.1370   49.9896 C   0  0  0  0  0  0  0  0  0  0  0  0
    4.6543   44.3133   50.4215 C   0  0  0  0  0  0  0  0  0  0  0  0
    3.6699   44.2439   49.5444 N   0  0  0  0  0  0  0  0  0  0  0  0
    2.4817   44.3264   50.2146 N   0  0  0  0  0  0  0  0  0  0  0  0
    2.7431   44.5071   51.4916 C   0  0  0  0  0  0  0  0  0  0  0  0
    4.1095   44.5712   51.6599 N   0  0  0  0  0  0  0  0  0  0  0  0
    4.8237   44.9976   52.8454 C   0  0  0  0  0  0  0  0  0  0  0  0
    3.9553   45.2998   54.0645 C   0  0  0  0  0  0  0  0  0  0  0  0
    2.9698   46.4469   53.8447 C   0  0  0  0  0  0  0  0  0  0  0  0
    1.6585   46.0399   53.1855 C   0  0  0  0  0  0  0  0  0  0  0  0
    1.7038   44.6557   52.5506 C   0  0  0  0  0  0  0  0  0  0  0  0
    5.7811   41.5311   48.4051 H   0  0  0  0  0  0  0  0  0  0  0  0
    6.3244   40.9813   49.9265 H   0  0  0  0  0  0  0  0  0  0  0  0
    9.2062   44.7052   49.3925 H   0  0  0  0  0  0  0  0  0  0  0  0
    6.7094   47.0274   50.1643 H   0  0  0  0  0  0  0  0  0  0  0  0
    6.3131   47.7040   52.5173 H   0  0  0  0  0  0  0  0  0  0  0  0
    7.4714   48.3396   54.6274 H   0  0  0  0  0  0  0  0  0  0  0  0
    9.8443   47.6660   55.0027 H   0  0  0  0  0  0  0  0  0  0  0  0
   11.0537   46.3568   53.2584 H   0  0  0  0  0  0  0  0  0  0  0  0
    9.8957   45.7177   51.1498 H   0  0  0  0  0  0  0  0  0  0  0  0
    5.5289   44.1997   53.1213 H   0  0  0  0  0  0  0  0  0  0  0  0
    5.3100   45.9476   52.5788 H   0  0  0  0  0  0  0  0  0  0  0  0
    3.3843   44.3944   54.3177 H   0  0  0  0  0  0  0  0  0  0  0  0
    4.6328   45.6075   54.8747 H   0  0  0  0  0  0  0  0  0  0  0  0
    2.7379   46.8920   54.8236 H   0  0  0  0  0  0  0  0  0  0  0  0
    3.4596   47.1503   53.1554 H   0  0  0  0  0  0  0  0  0  0  0  0
    0.8672   46.0472   53.9496 H   0  0  0  0  0  0  0  0  0  0  0  0
    1.4638   46.7611   52.3780 H   0  0  0  0  0  0  0  0  0  0  0  0
    1.9083   43.9191   53.3415 H   0  0  0  0  0  0  0  0  0  0  0  0
    0.7298   44.4968   52.0648 H   0  0  0  0  0  0  0  0  0  0  0  0
  1  2  1  0
  2  3  2  0
  3  4  1  0
  4  5  1  0
  5  6  1  0
  6  7  1  0
  7  8  2  0
  8  9  1  0
  9 10  2  0
 10 11  1  0
 11 12  2  0
  5 13  2  0
 13 14  1  0
 14 15  2  0
 15 16  1  0
 16 17  2  0
 17 18  1  0
 18 19  1  0
 19 20  1  0
 20 21  1  0
 21 22  1  0
 22 23  1  0
 13  2  1  0
 18 14  1  0
 12  7  1  0
 23 17  1  0
  1 24  1  0
  1 25  1  0
  4 26  1  0
  6 27  1  0
  8 28  1  0
  9 29  1  0
 10 30  1  0
 11 31  1  0
 12 32  1  0
 19 33  1  0
 19 34  1  0
 20 35  1  0
 20 36  1  0
 21 37  1  0
 21 38  1  0
 22 39  1  0
 22 40  1  0
 23 41  1  0
 23 42  1  0
M  END
>  <meeko>  (430) 
{"is_sidechain": false}

>  <CID>  (430) 
Z56840013

>  <pose_index>  (430) 
3

>  <docking_score>  (430) 
-7.543

>  <rmsd_to_best_selected>  (430) 
1.5790352774115899

>  <MWT>  (430) 
309.37699999999967

>  <TPSA>  (430) 
97.44

>  <logP>  (430) 
2.7204000000000006

>  <HBD>  (430) 
3

>  <HBA>  (430) 
6

>  <SMILES>  (430) 
[H]c1c([H])c([H])c(N([H])c2c(-c3nnc4n3C([H])([H])C([H])([H])C([H])([H])C([H])([H])C4([H])[H])c(N([H])[H])nn2[H])c([H])c1[H]

$$$$
Z56840013_pose7
     RDKit          3D

 42 45  0  0  0  0  0  0  0  0999 V2000
    5.5361   42.6820   48.2929 N   0  0  0  0  0  0  0  0  0  0  0  0
    6.4553   43.3051   49.0445 C   0  0  0  0  0  0  0  0  0  0  0  0
    7.6525   43.6535   48.5832 N   0  0  0  0  0  0  0  0  0  0  0  0
    8.2289   44.2557   49.6327 N   0  0  0  0  0  0  0  0  0  0  0  0
    7.4587   44.2809   50.7691 C   0  0  0  0  0  0  0  0  0  0  0  0
    7.9714   44.6803   51.9601 N   0  0  0  0  0  0  0  0  0  0  0  0
    8.3210   45.9910   52.3458 C   0  0  0  0  0  0  0  0  0  0  0  0
    7.3246   46.9751   52.4017 C   0  0  0  0  0  0  0  0  0  0  0  0
    7.6238   48.2779   52.8122 C   0  0  0  0  0  0  0  0  0  0  0  0
    8.9261   48.6127   53.1736 C   0  0  0  0  0  0  0  0  0  0  0  0
    9.9288   47.6472   53.1229 C   0  0  0  0  0  0  0  0  0  0  0  0
    9.6260   46.3463   52.7139 C   0  0  0  0  0  0  0  0  0  0  0  0
    6.2670   43.6894   50.4006 C   0  0  0  0  0  0  0  0  0  0  0  0
    4.9731   43.4363   51.2403 C   0  0  0  0  0  0  0  0  0  0  0  0
    4.5607   42.2140   51.5182 N   0  0  0  0  0  0  0  0  0  0  0  0
    3.4778   42.2986   52.3479 N   0  0  0  0  0  0  0  0  0  0  0  0
    3.1947   43.5702   52.5255 C   0  0  0  0  0  0  0  0  0  0  0  0
    4.0777   44.3287   51.7869 N   0  0  0  0  0  0  0  0  0  0  0  0
    3.9829   45.7435   51.4979 C   0  0  0  0  0  0  0  0  0  0  0  0
    3.9339   46.6642   52.7146 C   0  0  0  0  0  0  0  0  0  0  0  0
    2.6372   46.5517   53.5153 C   0  0  0  0  0  0  0  0  0  0  0  0
    2.4395   45.2416   54.2672 C   0  0  0  0  0  0  0  0  0  0  0  0
    2.0675   44.0734   53.3621 C   0  0  0  0  0  0  0  0  0  0  0  0
    5.6960   41.7056   48.0778 H   0  0  0  0  0  0  0  0  0  0  0  0
    4.5552   42.9272   48.4217 H   0  0  0  0  0  0  0  0  0  0  0  0
    9.1858   44.5746   49.5393 H   0  0  0  0  0  0  0  0  0  0  0  0
    8.3335   43.9645   52.5866 H   0  0  0  0  0  0  0  0  0  0  0  0
    6.2929   46.7191   52.1188 H   0  0  0  0  0  0  0  0  0  0  0  0
    6.8300   49.0386   52.8495 H   0  0  0  0  0  0  0  0  0  0  0  0
    9.1625   49.6367   53.4984 H   0  0  0  0  0  0  0  0  0  0  0  0
   10.9592   47.9092   53.4050 H   0  0  0  0  0  0  0  0  0  0  0  0
   10.4236   45.5895   52.6803 H   0  0  0  0  0  0  0  0  0  0  0  0
    4.8592   46.0252   50.8956 H   0  0  0  0  0  0  0  0  0  0  0  0
    3.0231   45.8805   50.9784 H   0  0  0  0  0  0  0  0  0  0  0  0
    4.7747   46.4103   53.3769 H   0  0  0  0  0  0  0  0  0  0  0  0
    3.9932   47.6968   52.3403 H   0  0  0  0  0  0  0  0  0  0  0  0
    2.6214   47.3696   54.2506 H   0  0  0  0  0  0  0  0  0  0  0  0
    1.8228   46.6011   52.7775 H   0  0  0  0  0  0  0  0  0  0  0  0
    3.3761   44.9942   54.7883 H   0  0  0  0  0  0  0  0  0  0  0  0
    1.6021   45.3911   54.9645 H   0  0  0  0  0  0  0  0  0  0  0  0
    1.7100   43.2469   53.9938 H   0  0  0  0  0  0  0  0  0  0  0  0
    1.2967   44.4413   52.6688 H   0  0  0  0  0  0  0  0  0  0  0  0
  1  2  1  0
  2  3  2  0
  3  4  1  0
  4  5  1  0
  5  6  1  0
  6  7  1  0
  7  8  2  0
  8  9  1  0
  9 10  2  0
 10 11  1  0
 11 12  2  0
  5 13  2  0
 13 14  1  0
 14 15  2  0
 15 16  1  0
 16 17  2  0
 17 18  1  0
 18 19  1  0
 19 20  1  0
 20 21  1  0
 21 22  1  0
 22 23  1  0
 13  2  1  0
 18 14  1  0
 12  7  1  0
 23 17  1  0
  1 24  1  0
  1 25  1  0
  4 26  1  0
  6 27  1  0
  8 28  1  0
  9 29  1  0
 10 30  1  0
 11 31  1  0
 12 32  1  0
 19 33  1  0
 19 34  1  0
 20 35  1  0
 20 36  1  0
 21 37  1  0
 21 38  1  0
 22 39  1  0
 22 40  1  0
 23 41  1  0
 23 42  1  0
M  END
>  <meeko>  (431) 
{"is_sidechain": false}

>  <CID>  (431) 
Z56840013

>  <pose_index>  (431) 
7

>  <docking_score>  (431) 
-6.949

>  <rmsd_to_best_selected>  (431) 
1.481255958442431

>  <MWT>  (431) 
309.37699999999967

>  <TPSA>  (431) 
97.44

>  <logP>  (431) 
2.7204000000000006

>  <HBD>  (431) 
3

>  <HBA>  (431) 
6

>  <SMILES>  (431) 
[H]c1c([H])c([H])c(N([H])c2c(-c3nnc4n3C([H])([H])C([H])([H])C([H])([H])C([H])([H])C4([H])[H])c(N([H])[H])nn2[H])c([H])c1[H]

$$$$
Z56840013_pose9
     RDKit          3D

 42 45  0  0  0  0  0  0  0  0999 V2000
    5.5661   42.5559   48.4224 N   0  0  0  0  0  0  0  0  0  0  0  0
    6.5070   43.1558   49.1658 C   0  0  0  0  0  0  0  0  0  0  0  0
    7.7234   43.4345   48.7070 N   0  0  0  0  0  0  0  0  0  0  0  0
    8.3189   44.0371   49.7464 N   0  0  0  0  0  0  0  0  0  0  0  0
    7.5412   44.1290   50.8748 C   0  0  0  0  0  0  0  0  0  0  0  0
    8.0622   44.5352   52.0587 N   0  0  0  0  0  0  0  0  0  0  0  0
    8.2515   45.8617   52.5012 C   0  0  0  0  0  0  0  0  0  0  0  0
    9.4687   46.5038   52.2338 C   0  0  0  0  0  0  0  0  0  0  0  0
    9.6827   47.8283   52.6237 C   0  0  0  0  0  0  0  0  0  0  0  0
    8.6802   48.5298   53.2876 C   0  0  0  0  0  0  0  0  0  0  0  0
    7.4648   47.9077   53.5619 C   0  0  0  0  0  0  0  0  0  0  0  0
    7.2532   46.5832   53.1696 C   0  0  0  0  0  0  0  0  0  0  0  0
    6.3263   43.5841   50.5100 C   0  0  0  0  0  0  0  0  0  0  0  0
    5.0153   43.4154   51.3436 C   0  0  0  0  0  0  0  0  0  0  0  0
    4.5896   42.2254   51.7242 N   0  0  0  0  0  0  0  0  0  0  0  0
    3.4920   42.3896   52.5207 N   0  0  0  0  0  0  0  0  0  0  0  0
    3.2126   43.6743   52.5763 C   0  0  0  0  0  0  0  0  0  0  0  0
    4.1146   44.3568   51.7889 N   0  0  0  0  0  0  0  0  0  0  0  0
    4.0340   45.7412   51.3698 C   0  0  0  0  0  0  0  0  0  0  0  0
    3.9868   46.7693   52.4969 C   0  0  0  0  0  0  0  0  0  0  0  0
    2.6792   46.7512   53.2870 C   0  0  0  0  0  0  0  0  0  0  0  0
    2.4378   45.4920   54.1537 C   0  0  0  0  0  0  0  0  0  0  0  0
    2.0727   44.2559   53.3407 C   0  0  0  0  0  0  0  0  0  0  0  0
    4.9712   43.1500   47.8590 H   0  0  0  0  0  0  0  0  0  0  0  0
    5.7851   41.6560   47.9958 H   0  0  0  0  0  0  0  0  0  0  0  0
    9.2907   44.3082   49.6533 H   0  0  0  0  0  0  0  0  0  0  0  0
    8.5554   43.8475   52.6237 H   0  0  0  0  0  0  0  0  0  0  0  0
   10.2664   45.9572   51.7096 H   0  0  0  0  0  0  0  0  0  0  0  0
   10.6439   48.3170   52.4061 H   0  0  0  0  0  0  0  0  0  0  0  0
    8.8476   49.5727   53.5948 H   0  0  0  0  0  0  0  0  0  0  0  0
    6.6712   48.4590   54.0874 H   0  0  0  0  0  0  0  0  0  0  0  0
    6.2895   46.1002   53.3885 H   0  0  0  0  0  0  0  0  0  0  0  0
    4.9159   45.9590   50.7496 H   0  0  0  0  0  0  0  0  0  0  0  0
    3.0784   45.8382   50.8335 H   0  0  0  0  0  0  0  0  0  0  0  0
    4.8152   46.5630   53.1906 H   0  0  0  0  0  0  0  0  0  0  0  0
    4.0685   47.7624   52.0311 H   0  0  0  0  0  0  0  0  0  0  0  0
    2.6746   47.6264   53.9533 H   0  0  0  0  0  0  0  0  0  0  0  0
    1.8747   46.7584   52.5368 H   0  0  0  0  0  0  0  0  0  0  0  0
    3.3562   45.2776   54.7199 H   0  0  0  0  0  0  0  0  0  0  0  0
    1.5839   45.7106   54.8116 H   0  0  0  0  0  0  0  0  0  0  0  0
    1.6914   43.4885   54.0304 H   0  0  0  0  0  0  0  0  0  0  0  0
    1.3220   44.5717   52.6013 H   0  0  0  0  0  0  0  0  0  0  0  0
  1  2  1  0
  2  3  2  0
  3  4  1  0
  4  5  1  0
  5  6  1  0
  6  7  1  0
  7  8  2  0
  8  9  1  0
  9 10  2  0
 10 11  1  0
 11 12  2  0
  5 13  2  0
 13 14  1  0
 14 15  2  0
 15 16  1  0
 16 17  2  0
 17 18  1  0
 18 19  1  0
 19 20  1  0
 20 21  1  0
 21 22  1  0
 22 23  1  0
 13  2  1  0
 18 14  1  0
 12  7  1  0
 23 17  1  0
  1 24  1  0
  1 25  1  0
  4 26  1  0
  6 27  1  0
  8 28  1  0
  9 29  1  0
 10 30  1  0
 11 31  1  0
 12 32  1  0
 19 33  1  0
 19 34  1  0
 20 35  1  0
 20 36  1  0
 21 37  1  0
 21 38  1  0
 22 39  1  0
 22 40  1  0
 23 41  1  0
 23 42  1  0
M  END
>  <meeko>  (432) 
{"is_sidechain": false}

>  <CID>  (432) 
Z56840013

>  <pose_index>  (432) 
9

>  <docking_score>  (432) 
-6.824

>  <rmsd_to_best_selected>  (432) 
1.4223555511860388

>  <MWT>  (432) 
309.37699999999967

>  <TPSA>  (432) 
97.44

>  <logP>  (432) 
2.7204000000000006

>  <HBD>  (432) 
3

>  <HBA>  (432) 
6

>  <SMILES>  (432) 
[H]c1c([H])c([H])c(N([H])c2c(-c3nnc4n3C([H])([H])C([H])([H])C([H])([H])C([H])([H])C4([H])[H])c(N([H])[H])nn2[H])c([H])c1[H]

$$$$
Z56840013_pose10
     RDKit          3D

 42 45  0  0  0  0  0  0  0  0999 V2000
    6.0172   42.0749   48.7706 N   0  0  0  0  0  0  0  0  0  0  0  0
    6.7745   42.7840   49.6190 C   0  0  0  0  0  0  0  0  0  0  0  0
    8.0902   42.6155   49.7300 N   0  0  0  0  0  0  0  0  0  0  0  0
    8.4444   43.5200   50.6534 N   0  0  0  0  0  0  0  0  0  0  0  0
    7.3988   44.2465   51.1706 C   0  0  0  0  0  0  0  0  0  0  0  0
    7.5685   45.0588   52.2431 N   0  0  0  0  0  0  0  0  0  0  0  0
    8.1661   46.3370   52.2645 C   0  0  0  0  0  0  0  0  0  0  0  0
    8.0260   47.1377   53.4067 C   0  0  0  0  0  0  0  0  0  0  0  0
    8.6319   48.3947   53.4813 C   0  0  0  0  0  0  0  0  0  0  0  0
    9.3882   48.8677   52.4127 C   0  0  0  0  0  0  0  0  0  0  0  0
    9.5376   48.0865   51.2695 C   0  0  0  0  0  0  0  0  0  0  0  0
    8.9314   46.8298   51.1986 C   0  0  0  0  0  0  0  0  0  0  0  0
    6.2881   43.8047   50.4810 C   0  0  0  0  0  0  0  0  0  0  0  0
    4.7960   44.2557   50.5939 C   0  0  0  0  0  0  0  0  0  0  0  0
    3.9833   44.2139   49.5540 N   0  0  0  0  0  0  0  0  0  0  0  0
    2.7286   44.5617   49.9679 N   0  0  0  0  0  0  0  0  0  0  0  0
    2.7893   44.8738   51.2450 C   0  0  0  0  0  0  0  0  0  0  0  0
    4.0959   44.7578   51.6680 N   0  0  0  0  0  0  0  0  0  0  0  0
    4.6534   45.2316   52.9173 C   0  0  0  0  0  0  0  0  0  0  0  0
    3.7147   46.0693   53.7822 C   0  0  0  0  0  0  0  0  0  0  0  0
    2.5887   45.2599   54.4241 C   0  0  0  0  0  0  0  0  0  0  0  0
    1.5561   44.6870   53.4449 C   0  0  0  0  0  0  0  0  0  0  0  0
    1.6218   45.3178   52.0591 C   0  0  0  0  0  0  0  0  0  0  0  0
    6.4771   41.6654   47.9684 H   0  0  0  0  0  0  0  0  0  0  0  0
    5.2594   41.5091   49.1534 H   0  0  0  0  0  0  0  0  0  0  0  0
    9.4125   43.5541   50.9474 H   0  0  0  0  0  0  0  0  0  0  0  0
    7.4414   44.6576   53.1697 H   0  0  0  0  0  0  0  0  0  0  0  0
    7.4309   46.7714   54.2562 H   0  0  0  0  0  0  0  0  0  0  0  0
    8.5111   49.0106   54.3846 H   0  0  0  0  0  0  0  0  0  0  0  0
    9.8668   49.8564   52.4711 H   0  0  0  0  0  0  0  0  0  0  0  0
   10.1328   48.4588   50.4227 H   0  0  0  0  0  0  0  0  0  0  0  0
    9.0565   46.2181   50.2930 H   0  0  0  0  0  0  0  0  0  0  0  0
    4.9622   44.3542   53.5045 H   0  0  0  0  0  0  0  0  0  0  0  0
    5.4847   45.8975   52.6428 H   0  0  0  0  0  0  0  0  0  0  0  0
    4.3055   46.5387   54.5826 H   0  0  0  0  0  0  0  0  0  0  0  0
    3.2424   46.8107   53.1209 H   0  0  0  0  0  0  0  0  0  0  0  0
    3.0422   44.4198   54.9705 H   0  0  0  0  0  0  0  0  0  0  0  0
    2.0401   45.9599   55.0714 H   0  0  0  0  0  0  0  0  0  0  0  0
    1.7327   43.6059   53.3447 H   0  0  0  0  0  0  0  0  0  0  0  0
    0.5602   44.9089   53.8560 H   0  0  0  0  0  0  0  0  0  0  0  0
    0.7018   45.0559   51.5159 H   0  0  0  0  0  0  0  0  0  0  0  0
    1.7318   46.4021   52.2081 H   0  0  0  0  0  0  0  0  0  0  0  0
  1  2  1  0
  2  3  2  0
  3  4  1  0
  4  5  1  0
  5  6  1  0
  6  7  1  0
  7  8  2  0
  8  9  1  0
  9 10  2  0
 10 11  1  0
 11 12  2  0
  5 13  2  0
 13 14  1  0
 14 15  2  0
 15 16  1  0
 16 17  2  0
 17 18  1  0
 18 19  1  0
 19 20  1  0
 20 21  1  0
 21 22  1  0
 22 23  1  0
 13  2  1  0
 18 14  1  0
 12  7  1  0
 23 17  1  0
  1 24  1  0
  1 25  1  0
  4 26  1  0
  6 27  1  0
  8 28  1  0
  9 29  1  0
 10 30  1  0
 11 31  1  0
 12 32  1  0
 19 33  1  0
 19 34  1  0
 20 35  1  0
 20 36  1  0
 21 37  1  0
 21 38  1  0
 22 39  1  0
 22 40  1  0
 23 41  1  0
 23 42  1  0
M  END
>  <meeko>  (433) 
{"is_sidechain": false}

>  <CID>  (433) 
Z56840013

>  <pose_index>  (433) 
10

>  <docking_score>  (433) 
-6.782

>  <rmsd_to_best_selected>  (433) 
1.9183341193012726

>  <MWT>  (433) 
309.37699999999967

>  <TPSA>  (433) 
97.44

>  <logP>  (433) 
2.7204000000000006

>  <HBD>  (433) 
3

>  <HBA>  (433) 
6

>  <SMILES>  (433) 
[H]c1c([H])c([H])c(N([H])c2c(-c3nnc4n3C([H])([H])C([H])([H])C([H])([H])C([H])([H])C4([H])[H])c(N([H])[H])nn2[H])c([H])c1[H]

$$$$
Z56854611_pose1
     RDKit          3D

 44 47  0  0  0  0  0  0  0  0999 V2000
   10.6800   47.7280   55.7170 C   0  0  0  0  0  0  0  0  0  0  0  0
    9.7760   47.3180   54.5930 C   0  0  0  0  0  0  0  0  0  0  0  0
    8.3960   47.5000   54.6870 C   0  0  0  0  0  0  0  0  0  0  0  0
    7.5610   47.1440   53.6220 C   0  0  0  0  0  0  0  0  0  0  0  0
    8.0780   46.6150   52.4290 C   0  0  0  0  0  0  0  0  0  0  0  0
    7.1860   46.2490   51.4170 N   0  0  0  0  0  0  0  0  0  0  0  0
    6.2970   45.1930   51.2390 C   0  0  0  0  0  0  0  0  0  0  0  0
    5.1540   45.1030   51.9290 N   0  0  0  0  0  0  0  0  0  0  0  0
    4.3390   44.0600   51.6830 C   0  0  0  0  0  0  0  0  0  0  0  0
    3.0950   43.9940   52.3690 N   0  0  0  0  0  0  0  0  0  0  0  0
    2.0690   44.7260   51.5790 C   0  0  0  0  0  0  0  0  0  0  0  0
    0.9000   45.1450   52.4840 C   0  0  0  0  0  0  0  0  0  0  0  0
    1.2860   46.0500   53.5300 O   0  0  0  0  0  0  0  0  0  0  0  0
    2.6650   45.9090   53.9170 C   0  0  0  0  0  0  0  0  0  0  0  0
    3.1790   44.4690   53.7730 C   0  0  0  0  0  0  0  0  0  0  0  0
    4.6670   43.0650   50.7470 C   0  0  0  0  0  0  0  0  0  0  0  0
    3.8870   41.9140   50.4660 C   0  0  0  0  0  0  0  0  0  0  0  0
    4.2980   40.9850   49.5140 C   0  0  0  0  0  0  0  0  0  0  0  0
    5.4920   41.1910   48.8380 C   0  0  0  0  0  0  0  0  0  0  0  0
    6.2660   42.3190   49.1270 C   0  0  0  0  0  0  0  0  0  0  0  0
    5.8750   43.2580   50.0750 C   0  0  0  0  0  0  0  0  0  0  0  0
    6.6720   44.3060   50.3080 N   0  0  0  0  0  0  0  0  0  0  0  0
    9.4620   46.4430   52.3470 C   0  0  0  0  0  0  0  0  0  0  0  0
   10.3040   46.7970   53.4090 C   0  0  0  0  0  0  0  0  0  0  0  0
   10.1931   47.5072   56.6783 H   0  0  0  0  0  0  0  0  0  0  0  0
   11.6260   47.1708   55.6486 H   0  0  0  0  0  0  0  0  0  0  0  0
   10.8840   48.8067   55.6486 H   0  0  0  0  0  0  0  0  0  0  0  0
    7.9618   47.9258   55.6036 H   0  0  0  0  0  0  0  0  0  0  0  0
    6.4743   47.2819   53.7220 H   0  0  0  0  0  0  0  0  0  0  0  0
    7.2150   46.7940   50.5680 H   0  0  0  0  0  0  0  0  0  0  0  0
    2.5245   45.6236   51.1353 H   0  0  0  0  0  0  0  0  0  0  0  0
    1.6891   44.0656   50.7855 H   0  0  0  0  0  0  0  0  0  0  0  0
    0.1361   45.6353   51.8627 H   0  0  0  0  0  0  0  0  0  0  0  0
    0.5195   44.2329   52.9670 H   0  0  0  0  0  0  0  0  0  0  0  0
    3.2773   46.5660   53.2818 H   0  0  0  0  0  0  0  0  0  0  0  0
    2.7406   46.1830   54.9796 H   0  0  0  0  0  0  0  0  0  0  0  0
    4.2285   44.4307   54.1001 H   0  0  0  0  0  0  0  0  0  0  0  0
    2.5484   43.8160   54.3943 H   0  0  0  0  0  0  0  0  0  0  0  0
    2.9436   41.7531   51.0082 H   0  0  0  0  0  0  0  0  0  0  0  0
    3.6834   40.0981   49.3003 H   0  0  0  0  0  0  0  0  0  0  0  0
    5.8282   40.4702   48.0781 H   0  0  0  0  0  0  0  0  0  0  0  0
    7.2132   42.4681   48.5879 H   0  0  0  0  0  0  0  0  0  0  0  0
    9.8993   46.0211   51.4301 H   0  0  0  0  0  0  0  0  0  0  0  0
   11.3914   46.6635   53.3099 H   0  0  0  0  0  0  0  0  0  0  0  0
  1  2  1  0
  2  3  2  0
  3  4  1  0
  4  5  2  0
  5  6  1  0
  6  7  1  0
  7  8  2  0
  8  9  1  0
  9 10  1  0
 10 11  1  0
 11 12  1  0
 12 13  1  0
 13 14  1  0
 14 15  1  0
  9 16  2  0
 16 17  1  0
 17 18  2  0
 18 19  1  0
 19 20  2  0
 20 21  1  0
 21 22  2  0
  5 23  1  0
 23 24  2  0
 24  2  1  0
 22  7  1  0
 15 10  1  0
 21 16  1  0
  1 25  1  0
  1 26  1  0
  1 27  1  0
  3 28  1  0
  4 29  1  0
  6 30  1  0
 11 31  1  0
 11 32  1  0
 12 33  1  0
 12 34  1  0
 14 35  1  0
 14 36  1  0
 15 37  1  0
 15 38  1  0
 17 39  1  0
 18 40  1  0
 19 41  1  0
 20 42  1  0
 23 43  1  0
 24 44  1  0
M  END
>  <meeko>  (434) 
{"is_sidechain": false}

>  <CID>  (434) 
Z56854611

>  <pose_index>  (434) 
1

>  <docking_score>  (434) 
-9.877

>  <rmsd_to_best_selected>  (434) 
0.0

>  <MWT>  (434) 
320.3959999999997

>  <TPSA>  (434) 
50.28

>  <logP>  (434) 
3.5184200000000025

>  <HBD>  (434) 
1

>  <HBA>  (434) 
5

>  <SMILES>  (434) 
[H]c1c([H])c(C([H])([H])[H])c([H])c([H])c1N([H])c1nc(N2C([H])([H])C([H])([H])OC([H])([H])C2([H])[H])c2c([H])c([H])c([H])c([H])c2n1

$$$$
Z56854611_pose2
     RDKit          3D

 44 47  0  0  0  0  0  0  0  0999 V2000
   10.0952   48.1435   55.7424 C   0  0  0  0  0  0  0  0  0  0  0  0
    9.3873   47.5656   54.5537 C   0  0  0  0  0  0  0  0  0  0  0  0
    8.0646   47.9131   54.2738 C   0  0  0  0  0  0  0  0  0  0  0  0
    7.4196   47.3941   53.1457 C   0  0  0  0  0  0  0  0  0  0  0  0
    8.0776   46.5298   52.2574 C   0  0  0  0  0  0  0  0  0  0  0  0
    7.3645   46.0206   51.1668 N   0  0  0  0  0  0  0  0  0  0  0  0
    6.3993   45.0305   51.0146 C   0  0  0  0  0  0  0  0  0  0  0  0
    5.2291   45.0721   51.6626 N   0  0  0  0  0  0  0  0  0  0  0  0
    4.3403   44.0844   51.4429 C   0  0  0  0  0  0  0  0  0  0  0  0
    3.0725   44.1582   52.0809 N   0  0  0  0  0  0  0  0  0  0  0  0
    2.4831   45.5015   51.8314 C   0  0  0  0  0  0  0  0  0  0  0  0
    1.4245   45.8245   52.8976 C   0  0  0  0  0  0  0  0  0  0  0  0
    1.9595   45.8894   54.2287 O   0  0  0  0  0  0  0  0  0  0  0  0
    3.1361   45.0794   54.4033 C   0  0  0  0  0  0  0  0  0  0  0  0
    3.1284   43.8195   53.5252 C   0  0  0  0  0  0  0  0  0  0  0  0
    4.6203   43.0131   50.5780 C   0  0  0  0  0  0  0  0  0  0  0  0
    3.7587   41.9130   50.3322 C   0  0  0  0  0  0  0  0  0  0  0  0
    4.1256   40.8985   49.4512 C   0  0  0  0  0  0  0  0  0  0  0  0
    5.3558   40.9689   48.8122 C   0  0  0  0  0  0  0  0  0  0  0  0
    6.2085   42.0475   49.0681 C   0  0  0  0  0  0  0  0  0  0  0  0
    5.8627   43.0683   49.9460 C   0  0  0  0  0  0  0  0  0  0  0  0
    6.7324   44.0621   50.1502 N   0  0  0  0  0  0  0  0  0  0  0  0
    9.4023   46.1953   52.5461 C   0  0  0  0  0  0  0  0  0  0  0  0
   10.0550   46.7103   53.6729 C   0  0  0  0  0  0  0  0  0  0  0  0
    9.8422   49.2098   55.8371 H   0  0  0  0  0  0  0  0  0  0  0  0
    9.7808   47.6099   56.6515 H   0  0  0  0  0  0  0  0  0  0  0  0
   11.1818   48.0347   55.6106 H   0  0  0  0  0  0  0  0  0  0  0  0
    7.5261   48.5992   54.9441 H   0  0  0  0  0  0  0  0  0  0  0  0
    6.3728   47.6700   52.9508 H   0  0  0  0  0  0  0  0  0  0  0  0
    7.6323   46.3557   50.2531 H   0  0  0  0  0  0  0  0  0  0  0  0
    3.2791   46.2598   51.8687 H   0  0  0  0  0  0  0  0  0  0  0  0
    2.0062   45.5050   50.8402 H   0  0  0  0  0  0  0  0  0  0  0  0
    0.9711   46.7971   52.6558 H   0  0  0  0  0  0  0  0  0  0  0  0
    0.6874   45.0081   52.8824 H   0  0  0  0  0  0  0  0  0  0  0  0
    4.0191   45.6823   54.1448 H   0  0  0  0  0  0  0  0  0  0  0  0
    3.1587   44.7509   55.4529 H   0  0  0  0  0  0  0  0  0  0  0  0
    4.0443   43.2427   53.7211 H   0  0  0  0  0  0  0  0  0  0  0  0
    2.2323   43.2325   53.7751 H   0  0  0  0  0  0  0  0  0  0  0  0
    2.7868   41.8606   50.8447 H   0  0  0  0  0  0  0  0  0  0  0  0
    3.4487   40.0518   49.2642 H   0  0  0  0  0  0  0  0  0  0  0  0
    5.6586   40.1801   48.1079 H   0  0  0  0  0  0  0  0  0  0  0  0
    7.1827   42.0894   48.5591 H   0  0  0  0  0  0  0  0  0  0  0  0
    9.9442   45.5131   51.8745 H   0  0  0  0  0  0  0  0  0  0  0  0
   11.1032   46.4390   53.8666 H   0  0  0  0  0  0  0  0  0  0  0  0
  1  2  1  0
  2  3  2  0
  3  4  1  0
  4  5  2  0
  5  6  1  0
  6  7  1  0
  7  8  2  0
  8  9  1  0
  9 10  1  0
 10 11  1  0
 11 12  1  0
 12 13  1  0
 13 14  1  0
 14 15  1  0
  9 16  2  0
 16 17  1  0
 17 18  2  0
 18 19  1  0
 19 20  2  0
 20 21  1  0
 21 22  2  0
  5 23  1  0
 23 24  2  0
 24  2  1  0
 22  7  1  0
 15 10  1  0
 21 16  1  0
  1 25  1  0
  1 26  1  0
  1 27  1  0
  3 28  1  0
  4 29  1  0
  6 30  1  0
 11 31  1  0
 11 32  1  0
 12 33  1  0
 12 34  1  0
 14 35  1  0
 14 36  1  0
 15 37  1  0
 15 38  1  0
 17 39  1  0
 18 40  1  0
 19 41  1  0
 20 42  1  0
 23 43  1  0
 24 44  1  0
M  END
>  <meeko>  (435) 
{"is_sidechain": false}

>  <CID>  (435) 
Z56854611

>  <pose_index>  (435) 
2

>  <docking_score>  (435) 
-9.229

>  <rmsd_to_best_selected>  (435) 
0.7822147525121165

>  <MWT>  (435) 
320.3959999999997

>  <TPSA>  (435) 
50.28

>  <logP>  (435) 
3.5184200000000025

>  <HBD>  (435) 
1

>  <HBA>  (435) 
5

>  <SMILES>  (435) 
[H]c1c([H])c(C([H])([H])[H])c([H])c([H])c1N([H])c1nc(N2C([H])([H])C([H])([H])OC([H])([H])C2([H])[H])c2c([H])c([H])c([H])c([H])c2n1

$$$$
Z56854611_pose3
     RDKit          3D

 44 47  0  0  0  0  0  0  0  0999 V2000
    9.4743   49.4666   54.7332 C   0  0  0  0  0  0  0  0  0  0  0  0
    9.0918   48.1559   54.1127 C   0  0  0  0  0  0  0  0  0  0  0  0
    7.7865   47.9306   53.6729 C   0  0  0  0  0  0  0  0  0  0  0  0
    7.4442   46.7164   53.0663 C   0  0  0  0  0  0  0  0  0  0  0  0
    8.3933   45.7023   52.8669 C   0  0  0  0  0  0  0  0  0  0  0  0
    7.9768   44.5020   52.2848 N   0  0  0  0  0  0  0  0  0  0  0  0
    6.7868   44.0580   51.7153 C   0  0  0  0  0  0  0  0  0  0  0  0
    5.5917   44.4003   52.2095 N   0  0  0  0  0  0  0  0  0  0  0  0
    4.4880   43.9455   51.5870 C   0  0  0  0  0  0  0  0  0  0  0  0
    3.2165   44.3580   52.0717 N   0  0  0  0  0  0  0  0  0  0  0  0
    3.2889   45.7934   52.4551 C   0  0  0  0  0  0  0  0  0  0  0  0
    2.1684   46.1348   53.4513 C   0  0  0  0  0  0  0  0  0  0  0  0
    2.2661   45.4094   54.6868 O   0  0  0  0  0  0  0  0  0  0  0  0
    2.9346   44.1425   54.5457 C   0  0  0  0  0  0  0  0  0  0  0  0
    2.7075   43.4995   53.1701 C   0  0  0  0  0  0  0  0  0  0  0  0
    4.5619   43.1120   50.4584 C   0  0  0  0  0  0  0  0  0  0  0  0
    3.4496   42.5550   49.7761 C   0  0  0  0  0  0  0  0  0  0  0  0
    3.6278   41.7399   48.6612 C   0  0  0  0  0  0  0  0  0  0  0  0
    4.9145   41.4707   48.2175 C   0  0  0  0  0  0  0  0  0  0  0  0
    6.0091   42.0100   48.8995 C   0  0  0  0  0  0  0  0  0  0  0  0
    5.8541   42.8227   50.0174 C   0  0  0  0  0  0  0  0  0  0  0  0
    6.9471   43.2940   50.6266 N   0  0  0  0  0  0  0  0  0  0  0  0
    9.6964   45.9446   53.3072 C   0  0  0  0  0  0  0  0  0  0  0  0
   10.0476   47.1570   53.9143 C   0  0  0  0  0  0  0  0  0  0  0  0
    8.7626   50.2435   54.4170 H   0  0  0  0  0  0  0  0  0  0  0  0
    9.4527   49.3737   55.8291 H   0  0  0  0  0  0  0  0  0  0  0  0
   10.4880   49.7441   54.4086 H   0  0  0  0  0  0  0  0  0  0  0  0
    7.0227   48.7113   53.8037 H   0  0  0  0  0  0  0  0  0  0  0  0
    6.4070   46.5534   52.7383 H   0  0  0  0  0  0  0  0  0  0  0  0
    8.6187   43.7241   52.3414 H   0  0  0  0  0  0  0  0  0  0  0  0
    4.2642   45.9958   52.9220 H   0  0  0  0  0  0  0  0  0  0  0  0
    3.1681   46.4119   51.5536 H   0  0  0  0  0  0  0  0  0  0  0  0
    2.2151   47.2111   53.6738 H   0  0  0  0  0  0  0  0  0  0  0  0
    1.2160   45.8498   52.9806 H   0  0  0  0  0  0  0  0  0  0  0  0
    4.0145   44.2974   54.6872 H   0  0  0  0  0  0  0  0  0  0  0  0
    2.5172   43.4619   55.3023 H   0  0  0  0  0  0  0  0  0  0  0  0
    3.2304   42.5323   53.1380 H   0  0  0  0  0  0  0  0  0  0  0  0
    1.6247   43.3673   53.0281 H   0  0  0  0  0  0  0  0  0  0  0  0
    2.4316   42.7702   50.1330 H   0  0  0  0  0  0  0  0  0  0  0  0
    2.7585   41.3145   48.1384 H   0  0  0  0  0  0  0  0  0  0  0  0
    5.0726   40.8359   47.3332 H   0  0  0  0  0  0  0  0  0  0  0  0
    7.0243   41.7845   48.5410 H   0  0  0  0  0  0  0  0  0  0  0  0
   10.4630   45.1670   53.1744 H   0  0  0  0  0  0  0  0  0  0  0  0
   11.0857   47.3240   54.2377 H   0  0  0  0  0  0  0  0  0  0  0  0
  1  2  1  0
  2  3  2  0
  3  4  1  0
  4  5  2  0
  5  6  1  0
  6  7  1  0
  7  8  2  0
  8  9  1  0
  9 10  1  0
 10 11  1  0
 11 12  1  0
 12 13  1  0
 13 14  1  0
 14 15  1  0
  9 16  2  0
 16 17  1  0
 17 18  2  0
 18 19  1  0
 19 20  2  0
 20 21  1  0
 21 22  2  0
  5 23  1  0
 23 24  2  0
 24  2  1  0
 22  7  1  0
 15 10  1  0
 21 16  1  0
  1 25  1  0
  1 26  1  0
  1 27  1  0
  3 28  1  0
  4 29  1  0
  6 30  1  0
 11 31  1  0
 11 32  1  0
 12 33  1  0
 12 34  1  0
 14 35  1  0
 14 36  1  0
 15 37  1  0
 15 38  1  0
 17 39  1  0
 18 40  1  0
 19 41  1  0
 20 42  1  0
 23 43  1  0
 24 44  1  0
M  END
>  <meeko>  (436) 
{"is_sidechain": false}

>  <CID>  (436) 
Z56854611

>  <pose_index>  (436) 
3

>  <docking_score>  (436) 
-8.945

>  <rmsd_to_best_selected>  (436) 
1.8212219529546094

>  <MWT>  (436) 
320.3959999999997

>  <TPSA>  (436) 
50.28

>  <logP>  (436) 
3.5184200000000025

>  <HBD>  (436) 
1

>  <HBA>  (436) 
5

>  <SMILES>  (436) 
[H]c1c([H])c(C([H])([H])[H])c([H])c([H])c1N([H])c1nc(N2C([H])([H])C([H])([H])OC([H])([H])C2([H])[H])c2c([H])c([H])c([H])c([H])c2n1

$$$$
Z56854611_pose4
     RDKit          3D

 44 47  0  0  0  0  0  0  0  0999 V2000
    9.5438   48.5618   55.7357 C   0  0  0  0  0  0  0  0  0  0  0  0
    9.0680   47.7444   54.5727 C   0  0  0  0  0  0  0  0  0  0  0  0
    7.9320   48.1201   53.8543 C   0  0  0  0  0  0  0  0  0  0  0  0
    7.5119   47.3690   52.7513 C   0  0  0  0  0  0  0  0  0  0  0  0
    8.2196   46.2362   52.3214 C   0  0  0  0  0  0  0  0  0  0  0  0
    7.7266   45.5121   51.2314 N   0  0  0  0  0  0  0  0  0  0  0  0
    6.6290   44.6806   51.0339 C   0  0  0  0  0  0  0  0  0  0  0  0
    5.4911   44.8296   51.7224 N   0  0  0  0  0  0  0  0  0  0  0  0
    4.4686   43.9954   51.4560 C   0  0  0  0  0  0  0  0  0  0  0  0
    3.2373   44.1909   52.1402 N   0  0  0  0  0  0  0  0  0  0  0  0
    2.7889   45.5948   51.9379 C   0  0  0  0  0  0  0  0  0  0  0  0
    1.8081   46.0042   53.0472 C   0  0  0  0  0  0  0  0  0  0  0  0
    2.3904   45.9812   54.3598 O   0  0  0  0  0  0  0  0  0  0  0  0
    3.4776   45.0460   54.4762 C   0  0  0  0  0  0  0  0  0  0  0  0
    3.3048   43.8151   53.5749 C   0  0  0  0  0  0  0  0  0  0  0  0
    4.5747   42.9707   50.5005 C   0  0  0  0  0  0  0  0  0  0  0  0
    3.5629   42.0245   50.1981 C   0  0  0  0  0  0  0  0  0  0  0  0
    3.7642   41.0448   49.2279 C   0  0  0  0  0  0  0  0  0  0  0  0
    4.9773   40.9980   48.5559 C   0  0  0  0  0  0  0  0  0  0  0  0
    5.9780   41.9233   48.8658 C   0  0  0  0  0  0  0  0  0  0  0  0
    5.7985   42.9070   49.8331 C   0  0  0  0  0  0  0  0  0  0  0  0
    6.8041   43.7505   50.0859 N   0  0  0  0  0  0  0  0  0  0  0  0
    9.3581   45.8753   53.0461 C   0  0  0  0  0  0  0  0  0  0  0  0
    9.7857   46.6211   54.1521 C   0  0  0  0  0  0  0  0  0  0  0  0
    8.8358   49.3830   55.9209 H   0  0  0  0  0  0  0  0  0  0  0  0
    9.6081   47.9244   56.6299 H   0  0  0  0  0  0  0  0  0  0  0  0
   10.5368   48.9777   55.5097 H   0  0  0  0  0  0  0  0  0  0  0  0
    7.3636   49.0119   54.1570 H   0  0  0  0  0  0  0  0  0  0  0  0
    6.6053   47.6738   52.2081 H   0  0  0  0  0  0  0  0  0  0  0  0
    8.3043   45.4889   50.4040 H   0  0  0  0  0  0  0  0  0  0  0  0
    3.6630   46.2622   51.9613 H   0  0  0  0  0  0  0  0  0  0  0  0
    2.2825   45.6729   50.9646 H   0  0  0  0  0  0  0  0  0  0  0  0
    1.4542   47.0250   52.8406 H   0  0  0  0  0  0  0  0  0  0  0  0
    0.9880   45.2712   53.0427 H   0  0  0  0  0  0  0  0  0  0  0  0
    4.4114   45.5566   54.1981 H   0  0  0  0  0  0  0  0  0  0  0  0
    3.4994   44.6926   55.5177 H   0  0  0  0  0  0  0  0  0  0  0  0
    4.1594   43.1393   53.7266 H   0  0  0  0  0  0  0  0  0  0  0  0
    2.3596   43.3217   53.8453 H   0  0  0  0  0  0  0  0  0  0  0  0
    2.6050   42.0644   50.7373 H   0  0  0  0  0  0  0  0  0  0  0  0
    2.9714   40.3178   48.9976 H   0  0  0  0  0  0  0  0  0  0  0  0
    5.1507   40.2356   47.7823 H   0  0  0  0  0  0  0  0  0  0  0  0
    6.9365   41.8721   48.3286 H   0  0  0  0  0  0  0  0  0  0  0  0
    9.9309   44.9869   52.7418 H   0  0  0  0  0  0  0  0  0  0  0  0
   10.6942   46.3201   54.6944 H   0  0  0  0  0  0  0  0  0  0  0  0
  1  2  1  0
  2  3  2  0
  3  4  1  0
  4  5  2  0
  5  6  1  0
  6  7  1  0
  7  8  2  0
  8  9  1  0
  9 10  1  0
 10 11  1  0
 11 12  1  0
 12 13  1  0
 13 14  1  0
 14 15  1  0
  9 16  2  0
 16 17  1  0
 17 18  2  0
 18 19  1  0
 19 20  2  0
 20 21  1  0
 21 22  2  0
  5 23  1  0
 23 24  2  0
 24  2  1  0
 22  7  1  0
 15 10  1  0
 21 16  1  0
  1 25  1  0
  1 26  1  0
  1 27  1  0
  3 28  1  0
  4 29  1  0
  6 30  1  0
 11 31  1  0
 11 32  1  0
 12 33  1  0
 12 34  1  0
 14 35  1  0
 14 36  1  0
 15 37  1  0
 15 38  1  0
 17 39  1  0
 18 40  1  0
 19 41  1  0
 20 42  1  0
 23 43  1  0
 24 44  1  0
M  END
>  <meeko>  (437) 
{"is_sidechain": false}

>  <CID>  (437) 
Z56854611

>  <pose_index>  (437) 
4

>  <docking_score>  (437) 
-8.846

>  <rmsd_to_best_selected>  (437) 
1.1973722203178632

>  <MWT>  (437) 
320.3959999999997

>  <TPSA>  (437) 
50.28

>  <logP>  (437) 
3.5184200000000025

>  <HBD>  (437) 
1

>  <HBA>  (437) 
5

>  <SMILES>  (437) 
[H]c1c([H])c(C([H])([H])[H])c([H])c([H])c1N([H])c1nc(N2C([H])([H])C([H])([H])OC([H])([H])C2([H])[H])c2c([H])c([H])c([H])c([H])c2n1

$$$$
Z56854611_pose5
     RDKit          3D

 44 47  0  0  0  0  0  0  0  0999 V2000
   10.3995   48.0191   55.7110 C   0  0  0  0  0  0  0  0  0  0  0  0
    9.5712   47.5044   54.5728 C   0  0  0  0  0  0  0  0  0  0  0  0
    8.5852   48.3024   53.9905 C   0  0  0  0  0  0  0  0  0  0  0  0
    7.8374   47.8265   52.9080 C   0  0  0  0  0  0  0  0  0  0  0  0
    8.0613   46.5532   52.3641 C   0  0  0  0  0  0  0  0  0  0  0  0
    7.2558   46.1268   51.3042 N   0  0  0  0  0  0  0  0  0  0  0  0
    6.3386   45.0933   51.1342 C   0  0  0  0  0  0  0  0  0  0  0  0
    5.1963   45.0369   51.8290 N   0  0  0  0  0  0  0  0  0  0  0  0
    4.3530   44.0149   51.5899 C   0  0  0  0  0  0  0  0  0  0  0  0
    3.1102   43.9855   52.2803 N   0  0  0  0  0  0  0  0  0  0  0  0
    2.2019   45.0013   51.6839 C   0  0  0  0  0  0  0  0  0  0  0  0
    1.1020   45.3846   52.6865 C   0  0  0  0  0  0  0  0  0  0  0  0
    1.6110   45.9926   53.8839 O   0  0  0  0  0  0  0  0  0  0  0  0
    2.9533   45.5815   54.1968 C   0  0  0  0  0  0  0  0  0  0  0  0
    3.2572   44.1443   53.7490 C   0  0  0  0  0  0  0  0  0  0  0  0
    4.6512   43.0073   50.6573 C   0  0  0  0  0  0  0  0  0  0  0  0
    3.8401   41.8765   50.3848 C   0  0  0  0  0  0  0  0  0  0  0  0
    4.2233   40.9314   49.4364 C   0  0  0  0  0  0  0  0  0  0  0  0
    5.4194   41.1038   48.7541 C   0  0  0  0  0  0  0  0  0  0  0  0
    6.2243   42.2120   49.0354 C   0  0  0  0  0  0  0  0  0  0  0  0
    5.8618   43.1643   49.9811 C   0  0  0  0  0  0  0  0  0  0  0  0
    6.6867   44.1924   50.2057 N   0  0  0  0  0  0  0  0  0  0  0  0
    9.0558   45.7670   52.9525 C   0  0  0  0  0  0  0  0  0  0  0  0
    9.8082   46.2362   54.0367 C   0  0  0  0  0  0  0  0  0  0  0  0
   10.0823   49.0420   55.9622 H   0  0  0  0  0  0  0  0  0  0  0  0
   10.2640   47.3677   56.5870 H   0  0  0  0  0  0  0  0  0  0  0  0
   11.4601   48.0253   55.4193 H   0  0  0  0  0  0  0  0  0  0  0  0
    8.3950   49.3115   54.3850 H   0  0  0  0  0  0  0  0  0  0  0  0
    7.0552   48.4662   52.4732 H   0  0  0  0  0  0  0  0  0  0  0  0
    7.3943   46.5858   50.4152 H   0  0  0  0  0  0  0  0  0  0  0  0
    2.7823   45.8979   51.4211 H   0  0  0  0  0  0  0  0  0  0  0  0
    1.7340   44.5788   50.7824 H   0  0  0  0  0  0  0  0  0  0  0  0
    0.4170   46.0938   52.1989 H   0  0  0  0  0  0  0  0  0  0  0  0
    0.5942   44.4552   52.9837 H   0  0  0  0  0  0  0  0  0  0  0  0
    3.6554   46.2621   53.6929 H   0  0  0  0  0  0  0  0  0  0  0  0
    3.0632   45.6170   55.2907 H   0  0  0  0  0  0  0  0  0  0  0  0
    4.2895   43.8927   54.0335 H   0  0  0  0  0  0  0  0  0  0  0  0
    2.5386   43.4721   54.2408 H   0  0  0  0  0  0  0  0  0  0  0  0
    2.8943   41.7438   50.9306 H   0  0  0  0  0  0  0  0  0  0  0  0
    3.5858   40.0590   49.2306 H   0  0  0  0  0  0  0  0  0  0  0  0
    5.7330   40.3718   47.9953 H   0  0  0  0  0  0  0  0  0  0  0  0
    7.1729   42.3340   48.4920 H   0  0  0  0  0  0  0  0  0  0  0  0
    9.2516   44.7597   52.5563 H   0  0  0  0  0  0  0  0  0  0  0  0
   10.5936   45.5998   54.4704 H   0  0  0  0  0  0  0  0  0  0  0  0
  1  2  1  0
  2  3  2  0
  3  4  1  0
  4  5  2  0
  5  6  1  0
  6  7  1  0
  7  8  2  0
  8  9  1  0
  9 10  1  0
 10 11  1  0
 11 12  1  0
 12 13  1  0
 13 14  1  0
 14 15  1  0
  9 16  2  0
 16 17  1  0
 17 18  2  0
 18 19  1  0
 19 20  2  0
 20 21  1  0
 21 22  2  0
  5 23  1  0
 23 24  2  0
 24  2  1  0
 22  7  1  0
 15 10  1  0
 21 16  1  0
  1 25  1  0
  1 26  1  0
  1 27  1  0
  3 28  1  0
  4 29  1  0
  6 30  1  0
 11 31  1  0
 11 32  1  0
 12 33  1  0
 12 34  1  0
 14 35  1  0
 14 36  1  0
 15 37  1  0
 15 38  1  0
 17 39  1  0
 18 40  1  0
 19 41  1  0
 20 42  1  0
 23 43  1  0
 24 44  1  0
M  END
>  <meeko>  (438) 
{"is_sidechain": false}

>  <CID>  (438) 
Z56854611

>  <pose_index>  (438) 
5

>  <docking_score>  (438) 
-8.747

>  <rmsd_to_best_selected>  (438) 
0.7156077417979942

>  <MWT>  (438) 
320.3959999999997

>  <TPSA>  (438) 
50.28

>  <logP>  (438) 
3.5184200000000025

>  <HBD>  (438) 
1

>  <HBA>  (438) 
5

>  <SMILES>  (438) 
[H]c1c([H])c(C([H])([H])[H])c([H])c([H])c1N([H])c1nc(N2C([H])([H])C([H])([H])OC([H])([H])C2([H])[H])c2c([H])c([H])c([H])c([H])c2n1

$$$$
Z56854611_pose7
     RDKit          3D

 44 47  0  0  0  0  0  0  0  0999 V2000
    9.3631   49.2485   54.9530 C   0  0  0  0  0  0  0  0  0  0  0  0
    9.0092   47.9559   54.2822 C   0  0  0  0  0  0  0  0  0  0  0  0
    7.8168   47.8270   53.5686 C   0  0  0  0  0  0  0  0  0  0  0  0
    7.5071   46.6258   52.9196 C   0  0  0  0  0  0  0  0  0  0  0  0
    8.3817   45.5291   52.9476 C   0  0  0  0  0  0  0  0  0  0  0  0
    7.9967   44.3491   52.3065 N   0  0  0  0  0  0  0  0  0  0  0  0
    6.7937   43.8642   51.8014 C   0  0  0  0  0  0  0  0  0  0  0  0
    5.6122   44.3827   52.1607 N   0  0  0  0  0  0  0  0  0  0  0  0
    4.4957   43.8708   51.6105 C   0  0  0  0  0  0  0  0  0  0  0  0
    3.2448   44.4582   51.9414 N   0  0  0  0  0  0  0  0  0  0  0  0
    3.2655   45.8928   51.5453 C   0  0  0  0  0  0  0  0  0  0  0  0
    2.2080   46.6780   52.3374 C   0  0  0  0  0  0  0  0  0  0  0  0
    2.4413   46.6752   53.7547 O   0  0  0  0  0  0  0  0  0  0  0  0
    3.1660   45.5173   54.2045 C   0  0  0  0  0  0  0  0  0  0  0  0
    2.8701   44.2663   53.3647 C   0  0  0  0  0  0  0  0  0  0  0  0
    4.5394   42.8031   50.6967 C   0  0  0  0  0  0  0  0  0  0  0  0
    3.4085   42.1781   50.1123 C   0  0  0  0  0  0  0  0  0  0  0  0
    3.5567   41.1260   49.2117 C   0  0  0  0  0  0  0  0  0  0  0  0
    4.8317   40.6842   48.8905 C   0  0  0  0  0  0  0  0  0  0  0  0
    5.9445   41.2936   49.4797 C   0  0  0  0  0  0  0  0  0  0  0  0
    5.8184   42.3424   50.3835 C   0  0  0  0  0  0  0  0  0  0  0  0
    6.9260   42.8681   50.9159 N   0  0  0  0  0  0  0  0  0  0  0  0
    9.5744   45.6754   53.6612 C   0  0  0  0  0  0  0  0  0  0  0  0
    9.8919   46.8731   54.3135 C   0  0  0  0  0  0  0  0  0  0  0  0
    8.7561   49.3679   55.8626 H   0  0  0  0  0  0  0  0  0  0  0  0
   10.4297   49.2419   55.2222 H   0  0  0  0  0  0  0  0  0  0  0  0
    9.1634   50.0845   54.2666 H   0  0  0  0  0  0  0  0  0  0  0  0
    7.1165   48.6737   53.5157 H   0  0  0  0  0  0  0  0  0  0  0  0
    6.5554   46.5397   52.3748 H   0  0  0  0  0  0  0  0  0  0  0  0
    8.6909   43.6180   52.2456 H   0  0  0  0  0  0  0  0  0  0  0  0
    4.2608   46.3126   51.7530 H   0  0  0  0  0  0  0  0  0  0  0  0
    3.0411   45.9716   50.4713 H   0  0  0  0  0  0  0  0  0  0  0  0
    2.2106   47.7201   51.9852 H   0  0  0  0  0  0  0  0  0  0  0  0
    1.2398   46.1849   52.1657 H   0  0  0  0  0  0  0  0  0  0  0  0
    4.2432   45.7326   54.1468 H   0  0  0  0  0  0  0  0  0  0  0  0
    2.8464   45.3068   55.2359 H   0  0  0  0  0  0  0  0  0  0  0  0
    3.4419   43.4198   53.7726 H   0  0  0  0  0  0  0  0  0  0  0  0
    1.7886   44.0708   53.4107 H   0  0  0  0  0  0  0  0  0  0  0  0
    2.3995   42.5293   50.3741 H   0  0  0  0  0  0  0  0  0  0  0  0
    2.6730   40.6511   48.7605 H   0  0  0  0  0  0  0  0  0  0  0  0
    4.9671   39.8589   48.1760 H   0  0  0  0  0  0  0  0  0  0  0  0
    6.9503   40.9318   49.2199 H   0  0  0  0  0  0  0  0  0  0  0  0
   10.2786   44.8318   53.7115 H   0  0  0  0  0  0  0  0  0  0  0  0
   10.8449   46.9624   54.8555 H   0  0  0  0  0  0  0  0  0  0  0  0
  1  2  1  0
  2  3  2  0
  3  4  1  0
  4  5  2  0
  5  6  1  0
  6  7  1  0
  7  8  2  0
  8  9  1  0
  9 10  1  0
 10 11  1  0
 11 12  1  0
 12 13  1  0
 13 14  1  0
 14 15  1  0
  9 16  2  0
 16 17  1  0
 17 18  2  0
 18 19  1  0
 19 20  2  0
 20 21  1  0
 21 22  2  0
  5 23  1  0
 23 24  2  0
 24  2  1  0
 22  7  1  0
 15 10  1  0
 21 16  1  0
  1 25  1  0
  1 26  1  0
  1 27  1  0
  3 28  1  0
  4 29  1  0
  6 30  1  0
 11 31  1  0
 11 32  1  0
 12 33  1  0
 12 34  1  0
 14 35  1  0
 14 36  1  0
 15 37  1  0
 15 38  1  0
 17 39  1  0
 18 40  1  0
 19 41  1  0
 20 42  1  0
 23 43  1  0
 24 44  1  0
M  END
>  <meeko>  (439) 
{"is_sidechain": false}

>  <CID>  (439) 
Z56854611

>  <pose_index>  (439) 
7

>  <docking_score>  (439) 
-8.426

>  <rmsd_to_best_selected>  (439) 
1.5503964355968305

>  <MWT>  (439) 
320.3959999999997

>  <TPSA>  (439) 
50.28

>  <logP>  (439) 
3.5184200000000025

>  <HBD>  (439) 
1

>  <HBA>  (439) 
5

>  <SMILES>  (439) 
[H]c1c([H])c(C([H])([H])[H])c([H])c([H])c1N([H])c1nc(N2C([H])([H])C([H])([H])OC([H])([H])C2([H])[H])c2c([H])c([H])c([H])c([H])c2n1

$$$$
Z56854611_pose8
     RDKit          3D

 44 47  0  0  0  0  0  0  0  0999 V2000
   10.7517   48.9641   53.9921 C   0  0  0  0  0  0  0  0  0  0  0  0
    9.8487   47.7696   53.9071 C   0  0  0  0  0  0  0  0  0  0  0  0
   10.2621   46.6100   53.2483 C   0  0  0  0  0  0  0  0  0  0  0  0
    9.4263   45.4894   53.1990 C   0  0  0  0  0  0  0  0  0  0  0  0
    8.1666   45.4843   53.8174 C   0  0  0  0  0  0  0  0  0  0  0  0
    7.3686   44.3422   53.7021 N   0  0  0  0  0  0  0  0  0  0  0  0
    6.3931   43.9242   52.8011 C   0  0  0  0  0  0  0  0  0  0  0  0
    5.0870   44.0896   53.0412 N   0  0  0  0  0  0  0  0  0  0  0  0
    4.2089   43.6759   52.1078 C   0  0  0  0  0  0  0  0  0  0  0  0
    2.8235   43.9054   52.3311 N   0  0  0  0  0  0  0  0  0  0  0  0
    2.3114   44.8245   51.2804 C   0  0  0  0  0  0  0  0  0  0  0  0
    1.0255   45.5164   51.7595 C   0  0  0  0  0  0  0  0  0  0  0  0
    1.2208   46.3417   52.9185 O   0  0  0  0  0  0  0  0  0  0  0  0
    2.3212   45.9083   53.7388 C   0  0  0  0  0  0  0  0  0  0  0  0
    2.5280   44.3872   53.7040 C   0  0  0  0  0  0  0  0  0  0  0  0
    4.6257   43.0627   50.9147 C   0  0  0  0  0  0  0  0  0  0  0  0
    3.7641   42.5579   49.9079 C   0  0  0  0  0  0  0  0  0  0  0  0
    4.2765   41.9685   48.7546 C   0  0  0  0  0  0  0  0  0  0  0  0
    5.6520   41.8716   48.5979 C   0  0  0  0  0  0  0  0  0  0  0  0
    6.4994   42.3577   49.5985 C   0  0  0  0  0  0  0  0  0  0  0  0
    6.0077   42.9467   50.7582 C   0  0  0  0  0  0  0  0  0  0  0  0
    6.8771   43.3779   51.6777 N   0  0  0  0  0  0  0  0  0  0  0  0
    7.7691   46.6492   54.4782 C   0  0  0  0  0  0  0  0  0  0  0  0
    8.5995   47.7763   54.5316 C   0  0  0  0  0  0  0  0  0  0  0  0
   11.1645   49.1832   52.9963 H   0  0  0  0  0  0  0  0  0  0  0  0
   10.1788   49.8320   54.3506 H   0  0  0  0  0  0  0  0  0  0  0  0
   11.5739   48.7532   54.6917 H   0  0  0  0  0  0  0  0  0  0  0  0
   11.2500   46.5774   52.7656 H   0  0  0  0  0  0  0  0  0  0  0  0
    9.7646   44.5906   52.6627 H   0  0  0  0  0  0  0  0  0  0  0  0
    7.4115   43.6795   54.4635 H   0  0  0  0  0  0  0  0  0  0  0  0
    3.0739   45.5866   51.0616 H   0  0  0  0  0  0  0  0  0  0  0  0
    2.0891   44.2435   50.3733 H   0  0  0  0  0  0  0  0  0  0  0  0
    0.6434   46.1466   50.9428 H   0  0  0  0  0  0  0  0  0  0  0  0
    0.3154   44.7246   52.0400 H   0  0  0  0  0  0  0  0  0  0  0  0
    3.2397   46.3960   53.3805 H   0  0  0  0  0  0  0  0  0  0  0  0
    2.0890   46.1867   54.7774 H   0  0  0  0  0  0  0  0  0  0  0  0
    3.3699   44.1266   54.3623 H   0  0  0  0  0  0  0  0  0  0  0  0
    1.5989   43.9065   54.0439 H   0  0  0  0  0  0  0  0  0  0  0  0
    2.6746   42.6329   50.0397 H   0  0  0  0  0  0  0  0  0  0  0  0
    3.5992   41.5847   47.9775 H   0  0  0  0  0  0  0  0  0  0  0  0
    6.0739   41.4144   47.6907 H   0  0  0  0  0  0  0  0  0  0  0  0
    7.5877   42.2716   49.4641 H   0  0  0  0  0  0  0  0  0  0  0  0
    6.7840   46.6822   54.9665 H   0  0  0  0  0  0  0  0  0  0  0  0
    8.2646   48.6748   55.0705 H   0  0  0  0  0  0  0  0  0  0  0  0
  1  2  1  0
  2  3  2  0
  3  4  1  0
  4  5  2  0
  5  6  1  0
  6  7  1  0
  7  8  2  0
  8  9  1  0
  9 10  1  0
 10 11  1  0
 11 12  1  0
 12 13  1  0
 13 14  1  0
 14 15  1  0
  9 16  2  0
 16 17  1  0
 17 18  2  0
 18 19  1  0
 19 20  2  0
 20 21  1  0
 21 22  2  0
  5 23  1  0
 23 24  2  0
 24  2  1  0
 22  7  1  0
 15 10  1  0
 21 16  1  0
  1 25  1  0
  1 26  1  0
  1 27  1  0
  3 28  1  0
  4 29  1  0
  6 30  1  0
 11 31  1  0
 11 32  1  0
 12 33  1  0
 12 34  1  0
 14 35  1  0
 14 36  1  0
 15 37  1  0
 15 38  1  0
 17 39  1  0
 18 40  1  0
 19 41  1  0
 20 42  1  0
 23 43  1  0
 24 44  1  0
M  END
>  <meeko>  (440) 
{"is_sidechain": false}

>  <CID>  (440) 
Z56854611

>  <pose_index>  (440) 
8

>  <docking_score>  (440) 
-8.198

>  <rmsd_to_best_selected>  (440) 
1.4989513180782972

>  <MWT>  (440) 
320.3959999999997

>  <TPSA>  (440) 
50.28

>  <logP>  (440) 
3.5184200000000025

>  <HBD>  (440) 
1

>  <HBA>  (440) 
5

>  <SMILES>  (440) 
[H]c1c([H])c(C([H])([H])[H])c([H])c([H])c1N([H])c1nc(N2C([H])([H])C([H])([H])OC([H])([H])C2([H])[H])c2c([H])c([H])c([H])c([H])c2n1

$$$$
Z56854611_pose9
     RDKit          3D

 44 47  0  0  0  0  0  0  0  0999 V2000
   10.5051   48.9578   54.8032 C   0  0  0  0  0  0  0  0  0  0  0  0
    9.7617   47.7435   54.3339 C   0  0  0  0  0  0  0  0  0  0  0  0
   10.4457   46.5675   54.0180 C   0  0  0  0  0  0  0  0  0  0  0  0
    9.7427   45.4283   53.6106 C   0  0  0  0  0  0  0  0  0  0  0  0
    8.3425   45.4214   53.5231 C   0  0  0  0  0  0  0  0  0  0  0  0
    7.7052   44.2600   53.0779 N   0  0  0  0  0  0  0  0  0  0  0  0
    6.6194   44.0052   52.2449 C   0  0  0  0  0  0  0  0  0  0  0  0
    5.4571   44.6557   52.3729 N   0  0  0  0  0  0  0  0  0  0  0  0
    4.4622   44.3644   51.5137 C   0  0  0  0  0  0  0  0  0  0  0  0
    3.2483   45.0973   51.6067 N   0  0  0  0  0  0  0  0  0  0  0  0
    3.3549   46.0679   52.7296 C   0  0  0  0  0  0  0  0  0  0  0  0
    1.9552   46.4787   53.2119 C   0  0  0  0  0  0  0  0  0  0  0  0
    1.1878   45.3826   53.7338 O   0  0  0  0  0  0  0  0  0  0  0  0
    1.5642   44.1134   53.1703 C   0  0  0  0  0  0  0  0  0  0  0  0
    2.0508   44.2272   51.7182 C   0  0  0  0  0  0  0  0  0  0  0  0
    4.6080   43.3896   50.5122 C   0  0  0  0  0  0  0  0  0  0  0  0
    3.5956   42.9921   49.6019 C   0  0  0  0  0  0  0  0  0  0  0  0
    3.8391   42.0157   48.6399 C   0  0  0  0  0  0  0  0  0  0  0  0
    5.0922   41.4224   48.5799 C   0  0  0  0  0  0  0  0  0  0  0  0
    6.0844   41.8064   49.4872 C   0  0  0  0  0  0  0  0  0  0  0  0
    5.8611   42.7770   50.4576 C   0  0  0  0  0  0  0  0  0  0  0  0
    6.8517   43.0837   51.3001 N   0  0  0  0  0  0  0  0  0  0  0  0
    7.6712   46.6029   53.8488 C   0  0  0  0  0  0  0  0  0  0  0  0
    8.3664   47.7481   54.2573 C   0  0  0  0  0  0  0  0  0  0  0  0
   11.3931   48.6467   55.3730 H   0  0  0  0  0  0  0  0  0  0  0  0
   10.8179   49.5549   53.9339 H   0  0  0  0  0  0  0  0  0  0  0  0
    9.8498   49.5629   55.4469 H   0  0  0  0  0  0  0  0  0  0  0  0
   11.5429   46.5366   54.0900 H   0  0  0  0  0  0  0  0  0  0  0  0
   10.3013   44.5165   53.3526 H   0  0  0  0  0  0  0  0  0  0  0  0
    8.0096   43.3894   53.4879 H   0  0  0  0  0  0  0  0  0  0  0  0
    3.9035   45.6020   53.5615 H   0  0  0  0  0  0  0  0  0  0  0  0
    3.8907   46.9628   52.3802 H   0  0  0  0  0  0  0  0  0  0  0  0
    2.0669   47.2344   54.0034 H   0  0  0  0  0  0  0  0  0  0  0  0
    1.4120   46.8690   52.3385 H   0  0  0  0  0  0  0  0  0  0  0  0
    2.3735   43.6846   53.7795 H   0  0  0  0  0  0  0  0  0  0  0  0
    0.6698   43.4730   53.1704 H   0  0  0  0  0  0  0  0  0  0  0  0
    2.3041   43.2230   51.3474 H   0  0  0  0  0  0  0  0  0  0  0  0
    1.2439   44.6764   51.1205 H   0  0  0  0  0  0  0  0  0  0  0  0
    2.6028   43.4626   49.6568 H   0  0  0  0  0  0  0  0  0  0  0  0
    3.0480   41.7180   47.9360 H   0  0  0  0  0  0  0  0  0  0  0  0
    5.3040   40.6537   47.8221 H   0  0  0  0  0  0  0  0  0  0  0  0
    7.0722   41.3258   49.4316 H   0  0  0  0  0  0  0  0  0  0  0  0
    6.5737   46.6343   53.7829 H   0  0  0  0  0  0  0  0  0  0  0  0
    7.8091   48.6593   54.5202 H   0  0  0  0  0  0  0  0  0  0  0  0
  1  2  1  0
  2  3  2  0
  3  4  1  0
  4  5  2  0
  5  6  1  0
  6  7  1  0
  7  8  2  0
  8  9  1  0
  9 10  1  0
 10 11  1  0
 11 12  1  0
 12 13  1  0
 13 14  1  0
 14 15  1  0
  9 16  2  0
 16 17  1  0
 17 18  2  0
 18 19  1  0
 19 20  2  0
 20 21  1  0
 21 22  2  0
  5 23  1  0
 23 24  2  0
 24  2  1  0
 22  7  1  0
 15 10  1  0
 21 16  1  0
  1 25  1  0
  1 26  1  0
  1 27  1  0
  3 28  1  0
  4 29  1  0
  6 30  1  0
 11 31  1  0
 11 32  1  0
 12 33  1  0
 12 34  1  0
 14 35  1  0
 14 36  1  0
 15 37  1  0
 15 38  1  0
 17 39  1  0
 18 40  1  0
 19 41  1  0
 20 42  1  0
 23 43  1  0
 24 44  1  0
M  END
>  <meeko>  (441) 
{"is_sidechain": false}

>  <CID>  (441) 
Z56854611

>  <pose_index>  (441) 
9

>  <docking_score>  (441) 
-7.858

>  <rmsd_to_best_selected>  (441) 
1.6657426748625446

>  <MWT>  (441) 
320.3959999999997

>  <TPSA>  (441) 
50.28

>  <logP>  (441) 
3.5184200000000025

>  <HBD>  (441) 
1

>  <HBA>  (441) 
5

>  <SMILES>  (441) 
[H]c1c([H])c(C([H])([H])[H])c([H])c([H])c1N([H])c1nc(N2C([H])([H])C([H])([H])OC([H])([H])C2([H])[H])c2c([H])c([H])c([H])c([H])c2n1

$$$$
Z56890527_pose4
     RDKit          3D

 40 43  0  0  0  0  0  0  0  0999 V2000
    7.3916   45.2665   49.8124 C   0  0  0  0  0  0  0  0  0  0  0  0
    6.8541   45.3722   51.2118 C   0  0  0  0  0  0  0  0  0  0  0  0
    5.6567   44.7800   51.4197 N   0  0  0  0  0  0  0  0  0  0  0  0
    5.1290   44.8448   52.6533 C   0  0  0  0  0  0  0  0  0  0  0  0
    3.9070   44.2547   52.9216 N   0  0  0  0  0  0  0  0  0  0  0  0
    2.9457   44.6236   53.8067 C   0  0  0  0  0  0  0  0  0  0  0  0
    1.8587   43.9118   53.8899 N   0  0  0  0  0  0  0  0  0  0  0  0
    0.8926   44.2948   54.7907 C   0  0  0  0  0  0  0  0  0  0  0  0
    0.9918   45.3622   55.6010 C   0  0  0  0  0  0  0  0  0  0  0  0
    2.2224   46.1732   55.5015 C   0  0  0  0  0  0  0  0  0  0  0  0
    2.4063   47.1728   56.1870 O   0  0  0  0  0  0  0  0  0  0  0  0
    3.1310   45.7270   54.5916 N   0  0  0  0  0  0  0  0  0  0  0  0
   -0.0465   45.7759   56.5995 C   0  0  0  0  0  0  0  0  0  0  0  0
   -1.1038   44.6970   56.8386 C   0  0  0  0  0  0  0  0  0  0  0  0
   -1.5340   44.0523   55.5260 C   0  0  0  0  0  0  0  0  0  0  0  0
   -0.3401   43.4196   54.8077 C   0  0  0  0  0  0  0  0  0  0  0  0
    5.7251   45.4620   53.6808 N   0  0  0  0  0  0  0  0  0  0  0  0
    6.9106   46.0470   53.4685 C   0  0  0  0  0  0  0  0  0  0  0  0
    7.5367   46.6905   54.5295 C   0  0  0  0  0  0  0  0  0  0  0  0
    8.7746   47.3231   54.3861 C   0  0  0  0  0  0  0  0  0  0  0  0
    9.4117   47.3189   53.1529 C   0  0  0  0  0  0  0  0  0  0  0  0
    8.8061   46.6806   52.0729 C   0  0  0  0  0  0  0  0  0  0  0  0
    7.5506   46.0405   52.2234 C   0  0  0  0  0  0  0  0  0  0  0  0
    7.3749   44.2144   49.4917 H   0  0  0  0  0  0  0  0  0  0  0  0
    6.7677   45.8666   49.1337 H   0  0  0  0  0  0  0  0  0  0  0  0
    8.4255   45.6411   49.7874 H   0  0  0  0  0  0  0  0  0  0  0  0
    3.7335   43.4367   52.3614 H   0  0  0  0  0  0  0  0  0  0  0  0
    3.9909   46.2516   54.4878 H   0  0  0  0  0  0  0  0  0  0  0  0
    0.4527   45.9962   57.5546 H   0  0  0  0  0  0  0  0  0  0  0  0
   -0.5615   46.6594   56.1942 H   0  0  0  0  0  0  0  0  0  0  0  0
   -0.6850   43.9233   57.4989 H   0  0  0  0  0  0  0  0  0  0  0  0
   -1.9837   45.1658   57.3033 H   0  0  0  0  0  0  0  0  0  0  0  0
   -2.2814   43.2730   55.7361 H   0  0  0  0  0  0  0  0  0  0  0  0
   -1.9607   44.8310   54.8768 H   0  0  0  0  0  0  0  0  0  0  0  0
   -0.0894   42.4764   55.3152 H   0  0  0  0  0  0  0  0  0  0  0  0
   -0.6396   43.2660   53.7604 H   0  0  0  0  0  0  0  0  0  0  0  0
    7.0428   46.7021   55.5123 H   0  0  0  0  0  0  0  0  0  0  0  0
    9.2424   47.8225   55.2474 H   0  0  0  0  0  0  0  0  0  0  0  0
   10.3857   47.8150   53.0295 H   0  0  0  0  0  0  0  0  0  0  0  0
    9.3073   46.6733   51.0937 H   0  0  0  0  0  0  0  0  0  0  0  0
  1  2  1  0
  2  3  2  0
  3  4  1  0
  4  5  1  0
  5  6  1  0
  6  7  2  0
  7  8  1  0
  8  9  2  0
  9 10  1  0
 10 11  2  0
 10 12  1  0
  9 13  1  0
 13 14  1  0
 14 15  1  0
 15 16  1  0
  4 17  2  0
 17 18  1  0
 18 19  2  0
 19 20  1  0
 20 21  2  0
 21 22  1  0
 22 23  2  0
 23  2  1  0
 12  6  1  0
 23 18  1  0
 16  8  1  0
  1 24  1  0
  1 25  1  0
  1 26  1  0
  5 27  1  0
 12 28  1  0
 13 29  1  0
 13 30  1  0
 14 31  1  0
 14 32  1  0
 15 33  1  0
 15 34  1  0
 16 35  1  0
 16 36  1  0
 19 37  1  0
 20 38  1  0
 21 39  1  0
 22 40  1  0
M  END
>  <meeko>  (442) 
{"is_sidechain": false}

>  <CID>  (442) 
Z56890527

>  <pose_index>  (442) 
4

>  <docking_score>  (442) 
-9.568

>  <rmsd_to_best_selected>  (442) 
1.2379737214731066

>  <MWT>  (442) 
307.3569999999997

>  <TPSA>  (442) 
83.56

>  <logP>  (442) 
2.6439200000000005

>  <HBD>  (442) 
2

>  <HBA>  (442) 
5

>  <SMILES>  (442) 
[H]c1c([H])c([H])c2c(C([H])([H])[H])nc(N([H])c3nc4c(c(=O)n3[H])C([H])([H])C([H])([H])C([H])([H])C4([H])[H])nc2c1[H]

$$$$
Z56890527_pose2
     RDKit          3D

 40 43  0  0  0  0  0  0  0  0999 V2000
    6.8856   47.5711   50.1323 C   0  0  0  0  0  0  0  0  0  0  0  0
    6.5425   47.0228   51.4884 C   0  0  0  0  0  0  0  0  0  0  0  0
    5.2498   47.1603   51.8600 N   0  0  0  0  0  0  0  0  0  0  0  0
    4.8884   46.6881   53.0641 C   0  0  0  0  0  0  0  0  0  0  0  0
    3.5787   46.8023   53.4950 N   0  0  0  0  0  0  0  0  0  0  0  0
    2.7776   45.8747   54.0786 C   0  0  0  0  0  0  0  0  0  0  0  0
    1.5629   46.2079   54.4074 N   0  0  0  0  0  0  0  0  0  0  0  0
    0.7613   45.2593   54.9983 C   0  0  0  0  0  0  0  0  0  0  0  0
    1.1456   43.9991   55.2634 C   0  0  0  0  0  0  0  0  0  0  0  0
    2.5267   43.6239   54.8962 C   0  0  0  0  0  0  0  0  0  0  0  0
    2.9800   42.5039   55.1059 O   0  0  0  0  0  0  0  0  0  0  0  0
    3.2537   44.6153   54.3131 N   0  0  0  0  0  0  0  0  0  0  0  0
    0.2731   42.9530   55.8891 C   0  0  0  0  0  0  0  0  0  0  0  0
   -1.2031   43.3538   55.9220 C   0  0  0  0  0  0  0  0  0  0  0  0
   -1.3640   44.8137   56.3291 C   0  0  0  0  0  0  0  0  0  0  0  0
   -0.6261   45.7390   55.3590 C   0  0  0  0  0  0  0  0  0  0  0  0
    5.7389   46.0911   53.9099 N   0  0  0  0  0  0  0  0  0  0  0  0
    7.0174   45.9583   53.5361 C   0  0  0  0  0  0  0  0  0  0  0  0
    7.9058   45.3408   54.4074 C   0  0  0  0  0  0  0  0  0  0  0  0
    9.2550   45.1653   54.0877 C   0  0  0  0  0  0  0  0  0  0  0  0
    9.7389   45.6170   52.8678 C   0  0  0  0  0  0  0  0  0  0  0  0
    8.8682   46.2387   51.9752 C   0  0  0  0  0  0  0  0  0  0  0  0
    7.5014   46.4152   52.3043 C   0  0  0  0  0  0  0  0  0  0  0  0
    7.3358   46.7768   49.5189 H   0  0  0  0  0  0  0  0  0  0  0  0
    5.9712   47.9383   49.6432 H   0  0  0  0  0  0  0  0  0  0  0  0
    7.6008   48.3996   50.2419 H   0  0  0  0  0  0  0  0  0  0  0  0
    3.1918   47.7182   53.3393 H   0  0  0  0  0  0  0  0  0  0  0  0
    4.2073   44.4035   54.0439 H   0  0  0  0  0  0  0  0  0  0  0  0
    0.3717   42.0220   55.3116 H   0  0  0  0  0  0  0  0  0  0  0  0
    0.6047   42.8248   56.9300 H   0  0  0  0  0  0  0  0  0  0  0  0
   -1.6374   43.2094   54.9218 H   0  0  0  0  0  0  0  0  0  0  0  0
   -1.7205   42.7249   56.6614 H   0  0  0  0  0  0  0  0  0  0  0  0
   -2.4334   45.0714   56.3285 H   0  0  0  0  0  0  0  0  0  0  0  0
   -0.9357   44.9463   57.3335 H   0  0  0  0  0  0  0  0  0  0  0  0
   -1.2179   45.8166   54.4350 H   0  0  0  0  0  0  0  0  0  0  0  0
   -0.5095   46.7085   55.8654 H   0  0  0  0  0  0  0  0  0  0  0  0
    7.5363   44.9791   55.3783 H   0  0  0  0  0  0  0  0  0  0  0  0
    9.9311   44.6707   54.8006 H   0  0  0  0  0  0  0  0  0  0  0  0
   10.7997   45.4854   52.6082 H   0  0  0  0  0  0  0  0  0  0  0  0
    9.2456   46.5960   51.0057 H   0  0  0  0  0  0  0  0  0  0  0  0
  1  2  1  0
  2  3  2  0
  3  4  1  0
  4  5  1  0
  5  6  1  0
  6  7  2  0
  7  8  1  0
  8  9  2  0
  9 10  1  0
 10 11  2  0
 10 12  1  0
  9 13  1  0
 13 14  1  0
 14 15  1  0
 15 16  1  0
  4 17  2  0
 17 18  1  0
 18 19  2  0
 19 20  1  0
 20 21  2  0
 21 22  1  0
 22 23  2  0
 23  2  1  0
 12  6  1  0
 23 18  1  0
 16  8  1  0
  1 24  1  0
  1 25  1  0
  1 26  1  0
  5 27  1  0
 12 28  1  0
 13 29  1  0
 13 30  1  0
 14 31  1  0
 14 32  1  0
 15 33  1  0
 15 34  1  0
 16 35  1  0
 16 36  1  0
 19 37  1  0
 20 38  1  0
 21 39  1  0
 22 40  1  0
M  END
>  <meeko>  (443) 
{"is_sidechain": false}

>  <CID>  (443) 
Z56890527

>  <pose_index>  (443) 
2

>  <docking_score>  (443) 
-9.822

>  <rmsd_to_best_selected>  (443) 
0.0

>  <MWT>  (443) 
307.3569999999997

>  <TPSA>  (443) 
83.56

>  <logP>  (443) 
2.6439200000000005

>  <HBD>  (443) 
2

>  <HBA>  (443) 
5

>  <SMILES>  (443) 
[H]c1c([H])c([H])c2c(C([H])([H])[H])nc(N([H])c3nc4c(c(=O)n3[H])C([H])([H])C([H])([H])C([H])([H])C4([H])[H])nc2c1[H]

$$$$
Z56890527_pose5
     RDKit          3D

 40 43  0  0  0  0  0  0  0  0999 V2000
    7.4460   45.1972   49.8252 C   0  0  0  0  0  0  0  0  0  0  0  0
    6.8728   45.3447   51.2066 C   0  0  0  0  0  0  0  0  0  0  0  0
    5.6643   44.7690   51.3982 N   0  0  0  0  0  0  0  0  0  0  0  0
    5.1064   44.8711   52.6157 C   0  0  0  0  0  0  0  0  0  0  0  0
    3.8718   44.3001   52.8673 N   0  0  0  0  0  0  0  0  0  0  0  0
    2.9291   44.6462   53.7805 C   0  0  0  0  0  0  0  0  0  0  0  0
    1.8256   43.9598   53.8395 N   0  0  0  0  0  0  0  0  0  0  0  0
    0.8789   44.3193   54.7689 C   0  0  0  0  0  0  0  0  0  0  0  0
    1.0130   45.3414   55.6320 C   0  0  0  0  0  0  0  0  0  0  0  0
    2.2633   46.1250   55.5594 C   0  0  0  0  0  0  0  0  0  0  0  0
    2.4793   47.0837   56.2931 O   0  0  0  0  0  0  0  0  0  0  0  0
    3.1500   45.7030   54.6183 N   0  0  0  0  0  0  0  0  0  0  0  0
   -0.0043   45.7304   56.6614 C   0  0  0  0  0  0  0  0  0  0  0  0
   -1.0870   44.6674   56.8572 C   0  0  0  0  0  0  0  0  0  0  0  0
   -1.5461   44.1016   55.5183 C   0  0  0  0  0  0  0  0  0  0  0  0
   -0.3765   43.4766   54.7560 C   0  0  0  0  0  0  0  0  0  0  0  0
    5.6816   45.5105   53.6421 N   0  0  0  0  0  0  0  0  0  0  0  0
    6.8779   46.0787   53.4454 C   0  0  0  0  0  0  0  0  0  0  0  0
    7.4814   46.7450   54.5049 C   0  0  0  0  0  0  0  0  0  0  0  0
    8.7287   47.3617   54.3771 C   0  0  0  0  0  0  0  0  0  0  0  0
    9.3972   47.3196   53.1609 C   0  0  0  0  0  0  0  0  0  0  0  0
    8.8141   46.6576   52.0836 C   0  0  0  0  0  0  0  0  0  0  0  0
    7.5489   46.0336   52.2183 C   0  0  0  0  0  0  0  0  0  0  0  0
    6.6294   45.1902   49.0882 H   0  0  0  0  0  0  0  0  0  0  0  0
    8.1211   46.0402   49.6165 H   0  0  0  0  0  0  0  0  0  0  0  0
    8.0070   44.2533   49.7599 H   0  0  0  0  0  0  0  0  0  0  0  0
    3.6718   43.5155   52.2680 H   0  0  0  0  0  0  0  0  0  0  0  0
    4.0227   46.2105   54.5321 H   0  0  0  0  0  0  0  0  0  0  0  0
    0.5097   45.8892   57.6208 H   0  0  0  0  0  0  0  0  0  0  0  0
   -0.5000   46.6463   56.3071 H   0  0  0  0  0  0  0  0  0  0  0  0
   -0.6821   43.8507   57.4729 H   0  0  0  0  0  0  0  0  0  0  0  0
   -1.9501   45.1339   57.3547 H   0  0  0  0  0  0  0  0  0  0  0  0
   -2.3114   43.3319   55.6966 H   0  0  0  0  0  0  0  0  0  0  0  0
   -1.9585   44.9232   54.9141 H   0  0  0  0  0  0  0  0  0  0  0  0
   -0.1455   42.5028   55.2126 H   0  0  0  0  0  0  0  0  0  0  0  0
   -0.6905   43.3845   53.7058 H   0  0  0  0  0  0  0  0  0  0  0  0
    6.9617   46.7882   55.4734 H   0  0  0  0  0  0  0  0  0  0  0  0
    9.1795   47.8787   55.2370 H   0  0  0  0  0  0  0  0  0  0  0  0
   10.3781   47.8048   53.0495 H   0  0  0  0  0  0  0  0  0  0  0  0
    9.3407   46.6184   51.1187 H   0  0  0  0  0  0  0  0  0  0  0  0
  1  2  1  0
  2  3  2  0
  3  4  1  0
  4  5  1  0
  5  6  1  0
  6  7  2  0
  7  8  1  0
  8  9  2  0
  9 10  1  0
 10 11  2  0
 10 12  1  0
  9 13  1  0
 13 14  1  0
 14 15  1  0
 15 16  1  0
  4 17  2  0
 17 18  1  0
 18 19  2  0
 19 20  1  0
 20 21  2  0
 21 22  1  0
 22 23  2  0
 23  2  1  0
 12  6  1  0
 23 18  1  0
 16  8  1  0
  1 24  1  0
  1 25  1  0
  1 26  1  0
  5 27  1  0
 12 28  1  0
 13 29  1  0
 13 30  1  0
 14 31  1  0
 14 32  1  0
 15 33  1  0
 15 34  1  0
 16 35  1  0
 16 36  1  0
 19 37  1  0
 20 38  1  0
 21 39  1  0
 22 40  1  0
M  END
>  <meeko>  (444) 
{"is_sidechain": false}

>  <CID>  (444) 
Z56890527

>  <pose_index>  (444) 
5

>  <docking_score>  (444) 
-9.528

>  <rmsd_to_best_selected>  (444) 
1.1620580958114723

>  <MWT>  (444) 
307.3569999999997

>  <TPSA>  (444) 
83.56

>  <logP>  (444) 
2.6439200000000005

>  <HBD>  (444) 
2

>  <HBA>  (444) 
5

>  <SMILES>  (444) 
[H]c1c([H])c([H])c2c(C([H])([H])[H])nc(N([H])c3nc4c(c(=O)n3[H])C([H])([H])C([H])([H])C([H])([H])C4([H])[H])nc2c1[H]

$$$$
Z56890527_pose6
     RDKit          3D

 40 43  0  0  0  0  0  0  0  0999 V2000
    7.7754   44.5820   50.1381 C   0  0  0  0  0  0  0  0  0  0  0  0
    6.9897   45.1226   51.2996 C   0  0  0  0  0  0  0  0  0  0  0  0
    5.7256   44.6588   51.4120 N   0  0  0  0  0  0  0  0  0  0  0  0
    4.9791   45.1102   52.4330 C   0  0  0  0  0  0  0  0  0  0  0  0
    3.6785   44.6665   52.5954 N   0  0  0  0  0  0  0  0  0  0  0  0
    2.8399   44.8164   53.6535 C   0  0  0  0  0  0  0  0  0  0  0  0
    1.6429   44.3128   53.5854 N   0  0  0  0  0  0  0  0  0  0  0  0
    0.8034   44.4704   54.6632 C   0  0  0  0  0  0  0  0  0  0  0  0
    1.1359   45.1147   55.7947 C   0  0  0  0  0  0  0  0  0  0  0  0
    2.4922   45.6938   55.8683 C   0  0  0  0  0  0  0  0  0  0  0  0
    2.8899   46.3111   56.8509 O   0  0  0  0  0  0  0  0  0  0  0  0
    3.2626   45.4906   54.7648 N   0  0  0  0  0  0  0  0  0  0  0  0
    0.2344   45.2758   56.9818 C   0  0  0  0  0  0  0  0  0  0  0  0
   -0.9987   44.3721   56.9188 C   0  0  0  0  0  0  0  0  0  0  0  0
   -1.5946   44.3576   55.5159 C   0  0  0  0  0  0  0  0  0  0  0  0
   -0.5712   43.8651   54.4899 C   0  0  0  0  0  0  0  0  0  0  0  0
    5.4203   45.9907   53.3392 N   0  0  0  0  0  0  0  0  0  0  0  0
    6.6732   46.4483   53.2228 C   0  0  0  0  0  0  0  0  0  0  0  0
    7.1394   47.3629   54.1578 C   0  0  0  0  0  0  0  0  0  0  0  0
    8.4350   47.8843   54.1024 C   0  0  0  0  0  0  0  0  0  0  0  0
    9.2943   47.4869   53.0865 C   0  0  0  0  0  0  0  0  0  0  0  0
    8.8520   46.5703   52.1359 C   0  0  0  0  0  0  0  0  0  0  0  0
    7.5378   46.0445   52.1973 C   0  0  0  0  0  0  0  0  0  0  0  0
    7.1289   44.5321   49.2496 H   0  0  0  0  0  0  0  0  0  0  0  0
    8.6296   45.2441   49.9333 H   0  0  0  0  0  0  0  0  0  0  0  0
    8.1428   43.5741   50.3813 H   0  0  0  0  0  0  0  0  0  0  0  0
    3.3309   44.1641   51.7955 H   0  0  0  0  0  0  0  0  0  0  0  0
    4.2018   45.8693   54.7707 H   0  0  0  0  0  0  0  0  0  0  0  0
    0.8035   45.0307   57.8907 H   0  0  0  0  0  0  0  0  0  0  0  0
   -0.1192   46.3174   56.9893 H   0  0  0  0  0  0  0  0  0  0  0  0
   -0.7087   43.3481   57.1970 H   0  0  0  0  0  0  0  0  0  0  0  0
   -1.7546   44.7617   57.6166 H   0  0  0  0  0  0  0  0  0  0  0  0
   -2.4676   43.6885   55.5028 H   0  0  0  0  0  0  0  0  0  0  0  0
   -1.8909   45.3832   55.2505 H   0  0  0  0  0  0  0  0  0  0  0  0
   -0.4838   42.7726   54.5835 H   0  0  0  0  0  0  0  0  0  0  0  0
   -0.9355   44.1738   53.4989 H   0  0  0  0  0  0  0  0  0  0  0  0
    6.4685   47.6869   54.9671 H   0  0  0  0  0  0  0  0  0  0  0  0
    8.7726   48.6065   54.8604 H   0  0  0  0  0  0  0  0  0  0  0  0
   10.3153   47.8926   53.0331 H   0  0  0  0  0  0  0  0  0  0  0  0
    9.5293   46.2515   51.3299 H   0  0  0  0  0  0  0  0  0  0  0  0
  1  2  1  0
  2  3  2  0
  3  4  1  0
  4  5  1  0
  5  6  1  0
  6  7  2  0
  7  8  1  0
  8  9  2  0
  9 10  1  0
 10 11  2  0
 10 12  1  0
  9 13  1  0
 13 14  1  0
 14 15  1  0
 15 16  1  0
  4 17  2  0
 17 18  1  0
 18 19  2  0
 19 20  1  0
 20 21  2  0
 21 22  1  0
 22 23  2  0
 23  2  1  0
 12  6  1  0
 23 18  1  0
 16  8  1  0
  1 24  1  0
  1 25  1  0
  1 26  1  0
  5 27  1  0
 12 28  1  0
 13 29  1  0
 13 30  1  0
 14 31  1  0
 14 32  1  0
 15 33  1  0
 15 34  1  0
 16 35  1  0
 16 36  1  0
 19 37  1  0
 20 38  1  0
 21 39  1  0
 22 40  1  0
M  END
>  <meeko>  (445) 
{"is_sidechain": false}

>  <CID>  (445) 
Z56890527

>  <pose_index>  (445) 
6

>  <docking_score>  (445) 
-9.379

>  <rmsd_to_best_selected>  (445) 
0.5967248556821582

>  <MWT>  (445) 
307.3569999999997

>  <TPSA>  (445) 
83.56

>  <logP>  (445) 
2.6439200000000005

>  <HBD>  (445) 
2

>  <HBA>  (445) 
5

>  <SMILES>  (445) 
[H]c1c([H])c([H])c2c(C([H])([H])[H])nc(N([H])c3nc4c(c(=O)n3[H])C([H])([H])C([H])([H])C([H])([H])C4([H])[H])nc2c1[H]

$$$$
Z56890527_pose7
     RDKit          3D

 40 43  0  0  0  0  0  0  0  0999 V2000
    7.8455   44.2948   50.4171 C   0  0  0  0  0  0  0  0  0  0  0  0
    7.0094   45.0371   51.4207 C   0  0  0  0  0  0  0  0  0  0  0  0
    5.7186   44.6443   51.5072 N   0  0  0  0  0  0  0  0  0  0  0  0
    4.9264   45.2764   52.3882 C   0  0  0  0  0  0  0  0  0  0  0  0
    3.5975   44.9136   52.5172 N   0  0  0  0  0  0  0  0  0  0  0  0
    2.8007   44.9308   53.6156 C   0  0  0  0  0  0  0  0  0  0  0  0
    1.5629   44.5427   53.5023 N   0  0  0  0  0  0  0  0  0  0  0  0
    0.7652   44.5641   54.6229 C   0  0  0  0  0  0  0  0  0  0  0  0
    1.1767   44.9610   55.8389 C   0  0  0  0  0  0  0  0  0  0  0  0
    2.5782   45.4081   55.9647 C   0  0  0  0  0  0  0  0  0  0  0  0
    3.0493   45.8010   57.0267 O   0  0  0  0  0  0  0  0  0  0  0  0
    3.3033   45.3520   54.8145 N   0  0  0  0  0  0  0  0  0  0  0  0
    0.3198   44.9700   57.0692 C   0  0  0  0  0  0  0  0  0  0  0  0
   -0.9852   44.1919   56.8897 C   0  0  0  0  0  0  0  0  0  0  0  0
   -1.6130   44.4839   55.5313 C   0  0  0  0  0  0  0  0  0  0  0  0
   -0.6590   44.1109   54.3945 C   0  0  0  0  0  0  0  0  0  0  0  0
    5.3479   46.2697   53.1813 N   0  0  0  0  0  0  0  0  0  0  0  0
    6.6269   46.6547   53.0926 C   0  0  0  0  0  0  0  0  0  0  0  0
    7.0718   47.6841   53.9117 C   0  0  0  0  0  0  0  0  0  0  0  0
    8.3926   48.1411   53.8763 C   0  0  0  0  0  0  0  0  0  0  0  0
    9.2991   47.5588   53.0004 C   0  0  0  0  0  0  0  0  0  0  0  0
    8.8784   46.5246   52.1683 C   0  0  0  0  0  0  0  0  0  0  0  0
    7.5383   46.0655   52.2080 C   0  0  0  0  0  0  0  0  0  0  0  0
    8.5716   44.9849   49.9628 H   0  0  0  0  0  0  0  0  0  0  0  0
    8.3821   43.4770   50.9203 H   0  0  0  0  0  0  0  0  0  0  0  0
    7.1949   43.8791   49.6336 H   0  0  0  0  0  0  0  0  0  0  0  0
    3.1911   44.5970   51.6524 H   0  0  0  0  0  0  0  0  0  0  0  0
    4.2701   45.6494   54.8525 H   0  0  0  0  0  0  0  0  0  0  0  0
    0.8874   44.5179   57.8959 H   0  0  0  0  0  0  0  0  0  0  0  0
    0.0546   46.0165   57.2799 H   0  0  0  0  0  0  0  0  0  0  0  0
   -0.7750   43.1148   56.9649 H   0  0  0  0  0  0  0  0  0  0  0  0
   -1.6895   44.5028   57.6754 H   0  0  0  0  0  0  0  0  0  0  0  0
   -2.5392   43.8992   55.4300 H   0  0  0  0  0  0  0  0  0  0  0  0
   -1.8281   45.5608   55.4690 H   0  0  0  0  0  0  0  0  0  0  0  0
   -0.6617   43.0165   54.2838 H   0  0  0  0  0  0  0  0  0  0  0  0
   -1.0189   44.6250   53.4911 H   0  0  0  0  0  0  0  0  0  0  0  0
    6.3634   48.1542   54.6096 H   0  0  0  0  0  0  0  0  0  0  0  0
    8.7123   48.9584   54.5394 H   0  0  0  0  0  0  0  0  0  0  0  0
   10.3404   47.9114   52.9641 H   0  0  0  0  0  0  0  0  0  0  0  0
    9.5932   46.0596   51.4734 H   0  0  0  0  0  0  0  0  0  0  0  0
  1  2  1  0
  2  3  2  0
  3  4  1  0
  4  5  1  0
  5  6  1  0
  6  7  2  0
  7  8  1  0
  8  9  2  0
  9 10  1  0
 10 11  2  0
 10 12  1  0
  9 13  1  0
 13 14  1  0
 14 15  1  0
 15 16  1  0
  4 17  2  0
 17 18  1  0
 18 19  2  0
 19 20  1  0
 20 21  2  0
 21 22  1  0
 22 23  2  0
 23  2  1  0
 12  6  1  0
 23 18  1  0
 16  8  1  0
  1 24  1  0
  1 25  1  0
  1 26  1  0
  5 27  1  0
 12 28  1  0
 13 29  1  0
 13 30  1  0
 14 31  1  0
 14 32  1  0
 15 33  1  0
 15 34  1  0
 16 35  1  0
 16 36  1  0
 19 37  1  0
 20 38  1  0
 21 39  1  0
 22 40  1  0
M  END
>  <meeko>  (446) 
{"is_sidechain": false}

>  <CID>  (446) 
Z56890527

>  <pose_index>  (446) 
7

>  <docking_score>  (446) 
-9.283

>  <rmsd_to_best_selected>  (446) 
0.26601722488538393

>  <MWT>  (446) 
307.3569999999997

>  <TPSA>  (446) 
83.56

>  <logP>  (446) 
2.6439200000000005

>  <HBD>  (446) 
2

>  <HBA>  (446) 
5

>  <SMILES>  (446) 
[H]c1c([H])c([H])c2c(C([H])([H])[H])nc(N([H])c3nc4c(c(=O)n3[H])C([H])([H])C([H])([H])C([H])([H])C4([H])[H])nc2c1[H]

$$$$
Z56890527_pose9
     RDKit          3D

 40 43  0  0  0  0  0  0  0  0999 V2000
    7.9538   44.1408   50.5784 C   0  0  0  0  0  0  0  0  0  0  0  0
    7.0726   44.9267   51.5079 C   0  0  0  0  0  0  0  0  0  0  0  0
    5.7987   44.4877   51.6112 N   0  0  0  0  0  0  0  0  0  0  0  0
    4.9677   45.1544   52.4291 C   0  0  0  0  0  0  0  0  0  0  0  0
    3.6533   44.7465   52.5721 N   0  0  0  0  0  0  0  0  0  0  0  0
    2.8288   44.8504   53.6455 C   0  0  0  0  0  0  0  0  0  0  0  0
    1.6130   44.3948   53.5527 N   0  0  0  0  0  0  0  0  0  0  0  0
    0.7882   44.5050   54.6471 C   0  0  0  0  0  0  0  0  0  0  0  0
    1.1501   45.0549   55.8189 C   0  0  0  0  0  0  0  0  0  0  0  0
    2.5285   45.5780   55.9206 C   0  0  0  0  0  0  0  0  0  0  0  0
    2.9541   46.1098   56.9405 O   0  0  0  0  0  0  0  0  0  0  0  0
    3.2828   45.4270   54.7985 N   0  0  0  0  0  0  0  0  0  0  0  0
    0.2646   45.1616   57.0227 C   0  0  0  0  0  0  0  0  0  0  0  0
   -1.0009   44.3089   56.9071 C   0  0  0  0  0  0  0  0  0  0  0  0
   -1.6069   44.4169   55.5131 C   0  0  0  0  0  0  0  0  0  0  0  0
   -0.6095   43.9634   54.4445 C   0  0  0  0  0  0  0  0  0  0  0  0
    5.3356   46.2249   53.1432 N   0  0  0  0  0  0  0  0  0  0  0  0
    6.5987   46.6558   53.0371 C   0  0  0  0  0  0  0  0  0  0  0  0
    6.9883   47.7665   53.7758 C   0  0  0  0  0  0  0  0  0  0  0  0
    8.2892   48.2748   53.7182 C   0  0  0  0  0  0  0  0  0  0  0  0
    9.2325   47.6631   52.9023 C   0  0  0  0  0  0  0  0  0  0  0  0
    8.8672   46.5472   52.1532 C   0  0  0  0  0  0  0  0  0  0  0  0
    7.5471   46.0364   52.2154 C   0  0  0  0  0  0  0  0  0  0  0  0
    8.2353   43.1906   51.0558 H   0  0  0  0  0  0  0  0  0  0  0  0
    7.4103   43.9350   49.6444 H   0  0  0  0  0  0  0  0  0  0  0  0
    8.8608   44.7215   50.3545 H   0  0  0  0  0  0  0  0  0  0  0  0
    3.2823   44.3158   51.7415 H   0  0  0  0  0  0  0  0  0  0  0  0
    4.2345   45.7710   54.8213 H   0  0  0  0  0  0  0  0  0  0  0  0
    0.8312   44.8314   57.9059 H   0  0  0  0  0  0  0  0  0  0  0  0
   -0.0511   46.2118   57.1089 H   0  0  0  0  0  0  0  0  0  0  0  0
   -0.7460   43.2579   57.1081 H   0  0  0  0  0  0  0  0  0  0  0  0
   -1.7372   44.6736   57.6385 H   0  0  0  0  0  0  0  0  0  0  0  0
   -2.5036   43.7820   55.4606 H   0  0  0  0  0  0  0  0  0  0  0  0
   -1.8677   45.4688   55.3250 H   0  0  0  0  0  0  0  0  0  0  0  0
   -0.5613   42.8646   54.4586 H   0  0  0  0  0  0  0  0  0  0  0  0
   -0.9695   44.3560   53.4821 H   0  0  0  0  0  0  0  0  0  0  0  0
    6.2508   48.2607   54.4254 H   0  0  0  0  0  0  0  0  0  0  0  0
    8.5648   49.1556   54.3166 H   0  0  0  0  0  0  0  0  0  0  0  0
   10.2584   48.0564   52.8484 H   0  0  0  0  0  0  0  0  0  0  0  0
    9.6108   46.0576   51.5071 H   0  0  0  0  0  0  0  0  0  0  0  0
  1  2  1  0
  2  3  2  0
  3  4  1  0
  4  5  1  0
  5  6  1  0
  6  7  2  0
  7  8  1  0
  8  9  2  0
  9 10  1  0
 10 11  2  0
 10 12  1  0
  9 13  1  0
 13 14  1  0
 14 15  1  0
 15 16  1  0
  4 17  2  0
 17 18  1  0
 18 19  2  0
 19 20  1  0
 20 21  2  0
 21 22  1  0
 22 23  2  0
 23  2  1  0
 12  6  1  0
 23 18  1  0
 16  8  1  0
  1 24  1  0
  1 25  1  0
  1 26  1  0
  5 27  1  0
 12 28  1  0
 13 29  1  0
 13 30  1  0
 14 31  1  0
 14 32  1  0
 15 33  1  0
 15 34  1  0
 16 35  1  0
 16 36  1  0
 19 37  1  0
 20 38  1  0
 21 39  1  0
 22 40  1  0
M  END
>  <meeko>  (447) 
{"is_sidechain": false}

>  <CID>  (447) 
Z56890527

>  <pose_index>  (447) 
9

>  <docking_score>  (447) 
-9.193

>  <rmsd_to_best_selected>  (447) 
0.3480155630312032

>  <MWT>  (447) 
307.3569999999997

>  <TPSA>  (447) 
83.56

>  <logP>  (447) 
2.6439200000000005

>  <HBD>  (447) 
2

>  <HBA>  (447) 
5

>  <SMILES>  (447) 
[H]c1c([H])c([H])c2c(C([H])([H])[H])nc(N([H])c3nc4c(c(=O)n3[H])C([H])([H])C([H])([H])C([H])([H])C4([H])[H])nc2c1[H]

$$$$
Z56974472_pose1
     RDKit          3D

 54 57  0  0  0  0  0  0  0  0999 V2000
   10.2740   45.4300   51.1870 C   0  0  0  0  0  0  0  0  0  0  0  0
    9.5290   46.2420   52.2150 C   0  0  0  0  0  0  0  0  0  0  0  0
   10.2600   46.8150   53.2720 C   0  0  0  0  0  0  0  0  0  0  0  0
    9.6200   47.5570   54.2600 C   0  0  0  0  0  0  0  0  0  0  0  0
    8.2450   47.7360   54.2010 C   0  0  0  0  0  0  0  0  0  0  0  0
    7.5100   47.1750   53.1520 C   0  0  0  0  0  0  0  0  0  0  0  0
    8.1280   46.4350   52.1330 C   0  0  0  0  0  0  0  0  0  0  0  0
    7.4010   45.8330   51.0950 N   0  0  0  0  0  0  0  0  0  0  0  0
    6.4640   44.8010   51.0420 C   0  0  0  0  0  0  0  0  0  0  0  0
    6.6970   43.8900   50.1110 N   0  0  0  0  0  0  0  0  0  0  0  0
    5.8340   42.8890   50.0440 C   0  0  0  0  0  0  0  0  0  0  0  0
    5.9630   41.8650   49.1060 N   0  0  0  0  0  0  0  0  0  0  0  0
    5.3110   41.5420   47.9050 C   0  0  0  0  0  0  0  0  0  0  0  0
    5.8060   41.9320   46.6520 C   0  0  0  0  0  0  0  0  0  0  0  0
    5.1610   41.5750   45.4640 C   0  0  0  0  0  0  0  0  0  0  0  0
    4.0060   40.8060   45.5030 C   0  0  0  0  0  0  0  0  0  0  0  0
    3.5010   40.3900   46.7300 C   0  0  0  0  0  0  0  0  0  0  0  0
    4.1430   40.7410   47.9320 C   0  0  0  0  0  0  0  0  0  0  0  0
    3.5520   40.2480   49.2280 C   0  0  0  0  0  0  0  0  0  0  0  0
    4.8000   42.7560   50.8660 N   0  0  0  0  0  0  0  0  0  0  0  0
    4.6340   43.6970   51.7900 C   0  0  0  0  0  0  0  0  0  0  0  0
    3.5380   43.5990   52.6660 N   0  0  0  0  0  0  0  0  0  0  0  0
    3.2650   44.8360   53.4040 C   0  0  0  0  0  0  0  0  0  0  0  0
    2.1940   44.6010   54.4680 C   0  0  0  0  0  0  0  0  0  0  0  0
    0.9410   43.9730   53.8710 C   0  0  0  0  0  0  0  0  0  0  0  0
    1.3000   42.6880   53.1330 C   0  0  0  0  0  0  0  0  0  0  0  0
    2.3730   42.9340   52.0730 C   0  0  0  0  0  0  0  0  0  0  0  0
    5.4500   44.7370   51.8940 N   0  0  0  0  0  0  0  0  0  0  0  0
   10.9335   44.7112   51.6952 H   0  0  0  0  0  0  0  0  0  0  0  0
    9.5543   44.8859   50.5577 H   0  0  0  0  0  0  0  0  0  0  0  0
   10.8779   46.1003   50.5577 H   0  0  0  0  0  0  0  0  0  0  0  0
   11.3501   46.6748   53.3178 H   0  0  0  0  0  0  0  0  0  0  0  0
   10.2006   47.9992   55.0831 H   0  0  0  0  0  0  0  0  0  0  0  0
    7.7329   48.3197   54.9801 H   0  0  0  0  0  0  0  0  0  0  0  0
    6.4196   47.3176   53.1252 H   0  0  0  0  0  0  0  0  0  0  0  0
    7.4220   46.2970   50.2000 H   0  0  0  0  0  0  0  0  0  0  0  0
    6.5810   41.1640   49.4860 H   0  0  0  0  0  0  0  0  0  0  0  0
    6.7252   42.5342   46.6027 H   0  0  0  0  0  0  0  0  0  0  0  0
    5.5694   41.9040   44.4971 H   0  0  0  0  0  0  0  0  0  0  0  0
    3.4940   40.5277   44.5701 H   0  0  0  0  0  0  0  0  0  0  0  0
    2.5873   39.7783   46.7614 H   0  0  0  0  0  0  0  0  0  0  0  0
    4.0930   40.6993   50.0728 H   0  0  0  0  0  0  0  0  0  0  0  0
    2.4905   40.5322   49.2785 H   0  0  0  0  0  0  0  0  0  0  0  0
    3.6412   39.1528   49.2785 H   0  0  0  0  0  0  0  0  0  0  0  0
    4.1900   45.1781   53.8912 H   0  0  0  0  0  0  0  0  0  0  0  0
    2.9030   45.5980   52.6981 H   0  0  0  0  0  0  0  0  0  0  0  0
    2.5980   43.9286   55.2392 H   0  0  0  0  0  0  0  0  0  0  0  0
    1.9191   45.5740   54.9012 H   0  0  0  0  0  0  0  0  0  0  0  0
    0.2296   43.7427   54.6778 H   0  0  0  0  0  0  0  0  0  0  0  0
    0.4863   44.6805   53.1620 H   0  0  0  0  0  0  0  0  0  0  0  0
    1.6761   41.9518   53.8587 H   0  0  0  0  0  0  0  0  0  0  0  0
    0.3961   42.3141   52.6299 H   0  0  0  0  0  0  0  0  0  0  0  0
    2.6856   41.9706   51.6440 H   0  0  0  0  0  0  0  0  0  0  0  0
    1.9555   43.5812   51.2877 H   0  0  0  0  0  0  0  0  0  0  0  0
  1  2  1  0
  2  3  2  0
  3  4  1  0
  4  5  2  0
  5  6  1  0
  6  7  2  0
  7  8  1  0
  8  9  1  0
  9 10  2  0
 10 11  1  0
 11 12  1  0
 12 13  1  0
 13 14  2  0
 14 15  1  0
 15 16  2  0
 16 17  1  0
 17 18  2  0
 18 19  1  0
 11 20  2  0
 20 21  1  0
 21 22  1  0
 22 23  1  0
 23 24  1  0
 24 25  1  0
 25 26  1  0
 26 27  1  0
 21 28  2  0
  7  2  1  0
 28  9  1  0
 18 13  1  0
 27 22  1  0
  1 29  1  0
  1 30  1  0
  1 31  1  0
  3 32  1  0
  4 33  1  0
  5 34  1  0
  6 35  1  0
  8 36  1  0
 12 37  1  0
 14 38  1  0
 15 39  1  0
 16 40  1  0
 17 41  1  0
 19 42  1  0
 19 43  1  0
 19 44  1  0
 23 45  1  0
 23 46  1  0
 24 47  1  0
 24 48  1  0
 25 49  1  0
 25 50  1  0
 26 51  1  0
 26 52  1  0
 27 53  1  0
 27 54  1  0
M  END
>  <meeko>  (448) 
{"is_sidechain": false}

>  <CID>  (448) 
Z56974472

>  <pose_index>  (448) 
1

>  <docking_score>  (448) 
-9.982

>  <rmsd_to_best_selected>  (448) 
0.0

>  <MWT>  (448) 
374.4919999999996

>  <TPSA>  (448) 
65.97

>  <logP>  (448) 
4.965940000000003

>  <HBD>  (448) 
2

>  <HBA>  (448) 
6

>  <SMILES>  (448) 
[H]c1c([H])c([H])c(C([H])([H])[H])c(N([H])c2nc(N([H])c3c([H])c([H])c([H])c([H])c3C([H])([H])[H])nc(N3C([H])([H])C([H])([H])C([H])([H])C([H])([H])C3([H])[H])n2)c1[H]

$$$$
Z56974472_pose2
     RDKit          3D

 54 57  0  0  0  0  0  0  0  0999 V2000
    3.5907   40.2077   49.1574 C   0  0  0  0  0  0  0  0  0  0  0  0
    4.1783   40.7173   47.8663 C   0  0  0  0  0  0  0  0  0  0  0  0
    3.5382   40.3741   46.6599 C   0  0  0  0  0  0  0  0  0  0  0  0
    4.0479   40.7993   45.4374 C   0  0  0  0  0  0  0  0  0  0  0  0
    5.1998   41.5730   45.4063 C   0  0  0  0  0  0  0  0  0  0  0  0
    5.8400   41.9233   46.5997 C   0  0  0  0  0  0  0  0  0  0  0  0
    5.3418   41.5229   47.8486 C   0  0  0  0  0  0  0  0  0  0  0  0
    5.9932   41.8333   49.0508 N   0  0  0  0  0  0  0  0  0  0  0  0
    5.7865   42.7898   50.0460 C   0  0  0  0  0  0  0  0  0  0  0  0
    6.6618   43.7825   50.0487 N   0  0  0  0  0  0  0  0  0  0  0  0
    6.4841   44.7149   50.9711 C   0  0  0  0  0  0  0  0  0  0  0  0
    7.3373   45.8125   51.0843 N   0  0  0  0  0  0  0  0  0  0  0  0
    8.0516   46.3976   52.1423 C   0  0  0  0  0  0  0  0  0  0  0  0
    7.4218   47.1167   53.1694 C   0  0  0  0  0  0  0  0  0  0  0  0
    8.1454   47.6658   54.2322 C   0  0  0  0  0  0  0  0  0  0  0  0
    9.5204   47.4978   54.2982 C   0  0  0  0  0  0  0  0  0  0  0  0
   10.1720   46.7747   53.3033 C   0  0  0  0  0  0  0  0  0  0  0  0
    9.4536   46.2147   52.2305 C   0  0  0  0  0  0  0  0  0  0  0  0
   10.2161   45.4329   51.1924 C   0  0  0  0  0  0  0  0  0  0  0  0
    5.4800   44.7054   51.8387 N   0  0  0  0  0  0  0  0  0  0  0  0
    4.6265   43.6895   51.7700 C   0  0  0  0  0  0  0  0  0  0  0  0
    3.5614   43.6361   52.6856 N   0  0  0  0  0  0  0  0  0  0  0  0
    3.3157   44.9056   53.3778 C   0  0  0  0  0  0  0  0  0  0  0  0
    2.2808   44.7210   54.4858 C   0  0  0  0  0  0  0  0  0  0  0  0
    1.0065   44.0734   53.9585 C   0  0  0  0  0  0  0  0  0  0  0  0
    1.3366   42.7568   53.2668 C   0  0  0  0  0  0  0  0  0  0  0  0
    2.3744   42.9493   52.1620 C   0  0  0  0  0  0  0  0  0  0  0  0
    4.7633   42.7114   50.8849 N   0  0  0  0  0  0  0  0  0  0  0  0
    4.1175   40.6674   50.0066 H   0  0  0  0  0  0  0  0  0  0  0  0
    2.5233   40.4695   49.2030 H   0  0  0  0  0  0  0  0  0  0  0  0
    3.7025   39.1145   49.2049 H   0  0  0  0  0  0  0  0  0  0  0  0
    2.6243   39.7624   46.6845 H   0  0  0  0  0  0  0  0  0  0  0  0
    3.5409   40.5241   44.5008 H   0  0  0  0  0  0  0  0  0  0  0  0
    5.6095   41.9107   44.4429 H   0  0  0  0  0  0  0  0  0  0  0  0
    6.7577   42.5283   46.5579 H   0  0  0  0  0  0  0  0  0  0  0  0
    6.6773   41.1685   49.3788 H   0  0  0  0  0  0  0  0  0  0  0  0
    7.2942   46.3366   50.2238 H   0  0  0  0  0  0  0  0  0  0  0  0
    6.3306   47.2519   53.1375 H   0  0  0  0  0  0  0  0  0  0  0  0
    7.6231   48.2321   55.0174 H   0  0  0  0  0  0  0  0  0  0  0  0
   10.0922   47.9331   55.1310 H   0  0  0  0  0  0  0  0  0  0  0  0
   11.2623   46.6391   53.3563 H   0  0  0  0  0  0  0  0  0  0  0  0
   10.8875   44.7185   51.6913 H   0  0  0  0  0  0  0  0  0  0  0  0
    9.5084   44.8856   50.5525 H   0  0  0  0  0  0  0  0  0  0  0  0
   10.8093   46.1240   50.5755 H   0  0  0  0  0  0  0  0  0  0  0  0
    4.2572   45.2653   53.8186 H   0  0  0  0  0  0  0  0  0  0  0  0
    2.9320   45.6374   52.6518 H   0  0  0  0  0  0  0  0  0  0  0  0
    2.7086   44.0805   55.2711 H   0  0  0  0  0  0  0  0  0  0  0  0
    2.0234   45.7129   54.8858 H   0  0  0  0  0  0  0  0  0  0  0  0
    0.3215   43.8820   54.7976 H   0  0  0  0  0  0  0  0  0  0  0  0
    0.5308   44.7513   53.2346 H   0  0  0  0  0  0  0  0  0  0  0  0
    1.7341   42.0516   54.0116 H   0  0  0  0  0  0  0  0  0  0  0  0
    0.4151   42.3662   52.8104 H   0  0  0  0  0  0  0  0  0  0  0  0
    2.6698   41.9659   51.7674 H   0  0  0  0  0  0  0  0  0  0  0  0
    1.9329   43.5619   51.3620 H   0  0  0  0  0  0  0  0  0  0  0  0
  1  2  1  0
  2  3  2  0
  3  4  1  0
  4  5  2  0
  5  6  1  0
  6  7  2  0
  7  8  1  0
  8  9  1  0
  9 10  2  0
 10 11  1  0
 11 12  1  0
 12 13  1  0
 13 14  2  0
 14 15  1  0
 15 16  2  0
 16 17  1  0
 17 18  2  0
 18 19  1  0
 11 20  2  0
 20 21  1  0
 21 22  1  0
 22 23  1  0
 23 24  1  0
 24 25  1  0
 25 26  1  0
 26 27  1  0
 21 28  2  0
  7  2  1  0
 28  9  1  0
 18 13  1  0
 27 22  1  0
  1 29  1  0
  1 30  1  0
  1 31  1  0
  3 32  1  0
  4 33  1  0
  5 34  1  0
  6 35  1  0
  8 36  1  0
 12 37  1  0
 14 38  1  0
 15 39  1  0
 16 40  1  0
 17 41  1  0
 19 42  1  0
 19 43  1  0
 19 44  1  0
 23 45  1  0
 23 46  1  0
 24 47  1  0
 24 48  1  0
 25 49  1  0
 25 50  1  0
 26 51  1  0
 26 52  1  0
 27 53  1  0
 27 54  1  0
M  END
>  <meeko>  (449) 
{"is_sidechain": false}

>  <CID>  (449) 
Z56974472

>  <pose_index>  (449) 
2

>  <docking_score>  (449) 
-9.949

>  <rmsd_to_best_selected>  (449) 
0.11021241863644889

>  <MWT>  (449) 
374.4919999999996

>  <TPSA>  (449) 
65.97

>  <logP>  (449) 
4.965940000000003

>  <HBD>  (449) 
2

>  <HBA>  (449) 
6

>  <SMILES>  (449) 
[H]c1c([H])c([H])c(C([H])([H])[H])c(N([H])c2nc(N([H])c3c([H])c([H])c([H])c([H])c3C([H])([H])[H])nc(N3C([H])([H])C([H])([H])C([H])([H])C([H])([H])C3([H])[H])n2)c1[H]

$$$$
Z56974472_pose3
     RDKit          3D

 54 57  0  0  0  0  0  0  0  0999 V2000
   10.7104   45.8555   51.3007 C   0  0  0  0  0  0  0  0  0  0  0  0
    9.7256   46.4300   52.2857 C   0  0  0  0  0  0  0  0  0  0  0  0
   10.1703   47.4296   53.1705 C   0  0  0  0  0  0  0  0  0  0  0  0
    9.3089   47.9807   54.1142 C   0  0  0  0  0  0  0  0  0  0  0  0
    7.9941   47.5403   54.1828 C   0  0  0  0  0  0  0  0  0  0  0  0
    7.5414   46.5507   53.3054 C   0  0  0  0  0  0  0  0  0  0  0  0
    8.3811   45.9872   52.3335 C   0  0  0  0  0  0  0  0  0  0  0  0
    7.9530   44.9659   51.4717 N   0  0  0  0  0  0  0  0  0  0  0  0
    6.7056   44.4265   51.1551 C   0  0  0  0  0  0  0  0  0  0  0  0
    6.5470   44.1135   49.8790 N   0  0  0  0  0  0  0  0  0  0  0  0
    5.3793   43.5852   49.5486 C   0  0  0  0  0  0  0  0  0  0  0  0
    5.0826   43.2126   48.2372 N   0  0  0  0  0  0  0  0  0  0  0  0
    4.9094   41.9855   47.5777 C   0  0  0  0  0  0  0  0  0  0  0  0
    5.9768   41.2920   46.9859 C   0  0  0  0  0  0  0  0  0  0  0  0
    5.7924   40.0549   46.3611 C   0  0  0  0  0  0  0  0  0  0  0  0
    4.5319   39.4757   46.3238 C   0  0  0  0  0  0  0  0  0  0  0  0
    3.4577   40.1303   46.9167 C   0  0  0  0  0  0  0  0  0  0  0  0
    3.6318   41.3745   47.5518 C   0  0  0  0  0  0  0  0  0  0  0  0
    2.4307   42.0257   48.1863 C   0  0  0  0  0  0  0  0  0  0  0  0
    4.4119   43.3385   50.4228 N   0  0  0  0  0  0  0  0  0  0  0  0
    4.6437   43.6596   51.6916 C   0  0  0  0  0  0  0  0  0  0  0  0
    3.6340   43.4310   52.6436 N   0  0  0  0  0  0  0  0  0  0  0  0
    3.4390   44.5481   53.5729 C   0  0  0  0  0  0  0  0  0  0  0  0
    2.4716   44.1559   54.6882 C   0  0  0  0  0  0  0  0  0  0  0  0
    1.1636   43.6120   54.1270 C   0  0  0  0  0  0  0  0  0  0  0  0
    1.4429   42.4489   53.1826 C   0  0  0  0  0  0  0  0  0  0  0  0
    2.4146   42.8498   52.0726 C   0  0  0  0  0  0  0  0  0  0  0  0
    5.7831   44.2149   52.0827 N   0  0  0  0  0  0  0  0  0  0  0  0
   11.6523   45.6210   51.8183 H   0  0  0  0  0  0  0  0  0  0  0  0
   10.2953   44.9368   50.8607 H   0  0  0  0  0  0  0  0  0  0  0  0
   10.9027   46.5892   50.5041 H   0  0  0  0  0  0  0  0  0  0  0  0
   11.2116   47.7796   53.1155 H   0  0  0  0  0  0  0  0  0  0  0  0
    9.6676   48.7608   54.8018 H   0  0  0  0  0  0  0  0  0  0  0  0
    7.3084   47.9701   54.9278 H   0  0  0  0  0  0  0  0  0  0  0  0
    6.4997   46.2050   53.3792 H   0  0  0  0  0  0  0  0  0  0  0  0
    8.6347   44.6089   50.8200 H   0  0  0  0  0  0  0  0  0  0  0  0
    5.1431   44.0340   47.6543 H   0  0  0  0  0  0  0  0  0  0  0  0
    6.9840   41.7331   47.0145 H   0  0  0  0  0  0  0  0  0  0  0  0
    6.6475   39.5401   45.8986 H   0  0  0  0  0  0  0  0  0  0  0  0
    4.3833   38.5049   45.8282 H   0  0  0  0  0  0  0  0  0  0  0  0
    2.4590   39.6699   46.8892 H   0  0  0  0  0  0  0  0  0  0  0  0
    2.6628   42.2855   49.2297 H   0  0  0  0  0  0  0  0  0  0  0  0
    2.1719   42.9387   47.6300 H   0  0  0  0  0  0  0  0  0  0  0  0
    1.5803   41.3284   48.1626 H   0  0  0  0  0  0  0  0  0  0  0  0
    4.4077   44.8243   54.0148 H   0  0  0  0  0  0  0  0  0  0  0  0
    3.0168   45.4002   53.0200 H   0  0  0  0  0  0  0  0  0  0  0  0
    2.9415   43.3823   55.3133 H   0  0  0  0  0  0  0  0  0  0  0  0
    2.2458   45.0544   55.2812 H   0  0  0  0  0  0  0  0  0  0  0  0
    0.5291   43.2639   54.9553 H   0  0  0  0  0  0  0  0  0  0  0  0
    0.6498   44.4110   53.5724 H   0  0  0  0  0  0  0  0  0  0  0  0
    1.8795   41.6187   53.7572 H   0  0  0  0  0  0  0  0  0  0  0  0
    0.4932   42.1462   52.7174 H   0  0  0  0  0  0  0  0  0  0  0  0
    2.6792   41.9592   51.4838 H   0  0  0  0  0  0  0  0  0  0  0  0
    1.9305   43.5993   51.4291 H   0  0  0  0  0  0  0  0  0  0  0  0
  1  2  1  0
  2  3  2  0
  3  4  1  0
  4  5  2  0
  5  6  1  0
  6  7  2  0
  7  8  1  0
  8  9  1  0
  9 10  2  0
 10 11  1  0
 11 12  1  0
 12 13  1  0
 13 14  2  0
 14 15  1  0
 15 16  2  0
 16 17  1  0
 17 18  2  0
 18 19  1  0
 11 20  2  0
 20 21  1  0
 21 22  1  0
 22 23  1  0
 23 24  1  0
 24 25  1  0
 25 26  1  0
 26 27  1  0
 21 28  2  0
  7  2  1  0
 28  9  1  0
 18 13  1  0
 27 22  1  0
  1 29  1  0
  1 30  1  0
  1 31  1  0
  3 32  1  0
  4 33  1  0
  5 34  1  0
  6 35  1  0
  8 36  1  0
 12 37  1  0
 14 38  1  0
 15 39  1  0
 16 40  1  0
 17 41  1  0
 19 42  1  0
 19 43  1  0
 19 44  1  0
 23 45  1  0
 23 46  1  0
 24 47  1  0
 24 48  1  0
 25 49  1  0
 25 50  1  0
 26 51  1  0
 26 52  1  0
 27 53  1  0
 27 54  1  0
M  END
>  <meeko>  (450) 
{"is_sidechain": false}

>  <CID>  (450) 
Z56974472

>  <pose_index>  (450) 
3

>  <docking_score>  (450) 
-9.811

>  <rmsd_to_best_selected>  (450) 
1.2929721169994401

>  <MWT>  (450) 
374.4919999999996

>  <TPSA>  (450) 
65.97

>  <logP>  (450) 
4.965940000000003

>  <HBD>  (450) 
2

>  <HBA>  (450) 
6

>  <SMILES>  (450) 
[H]c1c([H])c([H])c(C([H])([H])[H])c(N([H])c2nc(N([H])c3c([H])c([H])c([H])c([H])c3C([H])([H])[H])nc(N3C([H])([H])C([H])([H])C([H])([H])C([H])([H])C3([H])[H])n2)c1[H]

$$$$
Z56974472_pose4
     RDKit          3D

 54 57  0  0  0  0  0  0  0  0999 V2000
    2.4968   42.0571   48.0597 C   0  0  0  0  0  0  0  0  0  0  0  0
    3.7058   41.4215   47.4249 C   0  0  0  0  0  0  0  0  0  0  0  0
    3.5319   40.2234   46.7074 C   0  0  0  0  0  0  0  0  0  0  0  0
    4.6175   39.5826   46.1180 C   0  0  0  0  0  0  0  0  0  0  0  0
    5.8865   40.1319   46.2375 C   0  0  0  0  0  0  0  0  0  0  0  0
    6.0687   41.3243   46.9449 C   0  0  0  0  0  0  0  0  0  0  0  0
    4.9922   42.0016   47.5366 C   0  0  0  0  0  0  0  0  0  0  0  0
    5.1637   43.1781   48.2818 N   0  0  0  0  0  0  0  0  0  0  0  0
    5.3433   43.4462   49.6395 C   0  0  0  0  0  0  0  0  0  0  0  0
    6.5374   43.9194   49.9562 N   0  0  0  0  0  0  0  0  0  0  0  0
    6.7353   44.1987   51.2348 C   0  0  0  0  0  0  0  0  0  0  0  0
    7.9492   44.6996   51.7023 N   0  0  0  0  0  0  0  0  0  0  0  0
    8.3331   45.8563   52.4004 C   0  0  0  0  0  0  0  0  0  0  0  0
    7.4899   46.4919   53.3257 C   0  0  0  0  0  0  0  0  0  0  0  0
    7.8998   47.6236   54.0365 C   0  0  0  0  0  0  0  0  0  0  0  0
    9.1722   48.1421   53.8451 C   0  0  0  0  0  0  0  0  0  0  0  0
   10.0369   47.5235   52.9475 C   0  0  0  0  0  0  0  0  0  0  0  0
    9.6370   46.3822   52.2285 C   0  0  0  0  0  0  0  0  0  0  0  0
   10.6252   45.7532   51.2810 C   0  0  0  0  0  0  0  0  0  0  0  0
    5.8023   44.0554   52.1697 N   0  0  0  0  0  0  0  0  0  0  0  0
    4.6196   43.5920   51.7801 C   0  0  0  0  0  0  0  0  0  0  0  0
    3.6124   43.4083   52.7448 N   0  0  0  0  0  0  0  0  0  0  0  0
    3.4867   44.5289   53.6828 C   0  0  0  0  0  0  0  0  0  0  0  0
    2.5159   44.1780   54.8087 C   0  0  0  0  0  0  0  0  0  0  0  0
    1.1748   43.7039   54.2628 C   0  0  0  0  0  0  0  0  0  0  0  0
    1.3825   42.5334   53.3096 C   0  0  0  0  0  0  0  0  0  0  0  0
    2.3577   42.8923   52.1878 C   0  0  0  0  0  0  0  0  0  0  0  0
    4.3663   43.2719   50.5184 N   0  0  0  0  0  0  0  0  0  0  0  0
    2.7021   42.2554   49.1220 H   0  0  0  0  0  0  0  0  0  0  0  0
    2.2685   43.0033   47.5474 H   0  0  0  0  0  0  0  0  0  0  0  0
    1.6369   41.3765   47.9732 H   0  0  0  0  0  0  0  0  0  0  0  0
    2.5262   39.7883   46.6114 H   0  0  0  0  0  0  0  0  0  0  0  0
    4.4707   38.6457   45.5605 H   0  0  0  0  0  0  0  0  0  0  0  0
    6.7491   39.6292   45.7756 H   0  0  0  0  0  0  0  0  0  0  0  0
    7.0819   41.7419   47.0398 H   0  0  0  0  0  0  0  0  0  0  0  0
    5.3386   44.0229   47.7594 H   0  0  0  0  0  0  0  0  0  0  0  0
    8.6927   44.1390   51.3163 H   0  0  0  0  0  0  0  0  0  0  0  0
    6.4805   46.0890   53.4956 H   0  0  0  0  0  0  0  0  0  0  0  0
    7.2125   48.1036   54.7487 H   0  0  0  0  0  0  0  0  0  0  0  0
    9.4952   49.0359   54.3990 H   0  0  0  0  0  0  0  0  0  0  0  0
   11.0471   47.9324   52.7979 H   0  0  0  0  0  0  0  0  0  0  0  0
   11.5583   45.5302   51.8192 H   0  0  0  0  0  0  0  0  0  0  0  0
   10.2034   44.8212   50.8767 H   0  0  0  0  0  0  0  0  0  0  0  0
   10.8355   46.4490   50.4553 H   0  0  0  0  0  0  0  0  0  0  0  0
    4.4739   44.7534   54.1129 H   0  0  0  0  0  0  0  0  0  0  0  0
    3.1010   45.4049   53.1407 H   0  0  0  0  0  0  0  0  0  0  0  0
    2.9549   43.3778   55.4226 H   0  0  0  0  0  0  0  0  0  0  0  0
    2.3432   45.0830   55.4097 H   0  0  0  0  0  0  0  0  0  0  0  0
    0.5345   43.3839   55.0981 H   0  0  0  0  0  0  0  0  0  0  0  0
    0.6945   44.5307   53.7190 H   0  0  0  0  0  0  0  0  0  0  0  0
    1.7854   41.6795   53.8741 H   0  0  0  0  0  0  0  0  0  0  0  0
    0.4126   42.2800   52.8568 H   0  0  0  0  0  0  0  0  0  0  0  0
    2.5693   41.9933   51.5903 H   0  0  0  0  0  0  0  0  0  0  0  0
    1.9028   43.6689   51.5553 H   0  0  0  0  0  0  0  0  0  0  0  0
  1  2  1  0
  2  3  2  0
  3  4  1  0
  4  5  2  0
  5  6  1  0
  6  7  2  0
  7  8  1  0
  8  9  1  0
  9 10  2  0
 10 11  1  0
 11 12  1  0
 12 13  1  0
 13 14  2  0
 14 15  1  0
 15 16  2  0
 16 17  1  0
 17 18  2  0
 18 19  1  0
 11 20  2  0
 20 21  1  0
 21 22  1  0
 22 23  1  0
 23 24  1  0
 24 25  1  0
 25 26  1  0
 26 27  1  0
 21 28  2  0
  7  2  1  0
 28  9  1  0
 18 13  1  0
 27 22  1  0
  1 29  1  0
  1 30  1  0
  1 31  1  0
  3 32  1  0
  4 33  1  0
  5 34  1  0
  6 35  1  0
  8 36  1  0
 12 37  1  0
 14 38  1  0
 15 39  1  0
 16 40  1  0
 17 41  1  0
 19 42  1  0
 19 43  1  0
 19 44  1  0
 23 45  1  0
 23 46  1  0
 24 47  1  0
 24 48  1  0
 25 49  1  0
 25 50  1  0
 26 51  1  0
 26 52  1  0
 27 53  1  0
 27 54  1  0
M  END
>  <meeko>  (451) 
{"is_sidechain": false}

>  <CID>  (451) 
Z56974472

>  <pose_index>  (451) 
4

>  <docking_score>  (451) 
-9.775

>  <rmsd_to_best_selected>  (451) 
1.3249597106

>  <MWT>  (451) 
374.4919999999996

>  <TPSA>  (451) 
65.97

>  <logP>  (451) 
4.965940000000003

>  <HBD>  (451) 
2

>  <HBA>  (451) 
6

>  <SMILES>  (451) 
[H]c1c([H])c([H])c(C([H])([H])[H])c(N([H])c2nc(N([H])c3c([H])c([H])c([H])c([H])c3C([H])([H])[H])nc(N3C([H])([H])C([H])([H])C([H])([H])C([H])([H])C3([H])[H])n2)c1[H]

$$$$
Z56974472_pose5
     RDKit          3D

 54 57  0  0  0  0  0  0  0  0999 V2000
    9.4037   45.1143   50.3197 C   0  0  0  0  0  0  0  0  0  0  0  0
    9.2291   45.9807   51.5401 C   0  0  0  0  0  0  0  0  0  0  0  0
   10.3631   46.2736   52.3199 C   0  0  0  0  0  0  0  0  0  0  0  0
   10.2569   47.0517   53.4679 C   0  0  0  0  0  0  0  0  0  0  0  0
    9.0173   47.5475   53.8485 C   0  0  0  0  0  0  0  0  0  0  0  0
    7.8853   47.2663   53.0774 C   0  0  0  0  0  0  0  0  0  0  0  0
    7.9626   46.4984   51.9065 C   0  0  0  0  0  0  0  0  0  0  0  0
    6.8308   46.1749   51.1444 N   0  0  0  0  0  0  0  0  0  0  0  0
    5.9285   45.1104   51.1540 C   0  0  0  0  0  0  0  0  0  0  0  0
    6.2733   44.0879   50.3882 N   0  0  0  0  0  0  0  0  0  0  0  0
    5.4464   43.0543   50.3860 C   0  0  0  0  0  0  0  0  0  0  0  0
    5.6908   41.9148   49.6205 N   0  0  0  0  0  0  0  0  0  0  0  0
    5.6555   41.6259   48.2462 C   0  0  0  0  0  0  0  0  0  0  0  0
    6.8007   41.6701   47.4381 C   0  0  0  0  0  0  0  0  0  0  0  0
    6.7530   41.3485   46.0782 C   0  0  0  0  0  0  0  0  0  0  0  0
    5.5543   40.9626   45.4958 C   0  0  0  0  0  0  0  0  0  0  0  0
    4.4047   40.8923   46.2757 C   0  0  0  0  0  0  0  0  0  0  0  0
    4.4411   41.2113   47.6463 C   0  0  0  0  0  0  0  0  0  0  0  0
    3.1631   41.1031   48.4377 C   0  0  0  0  0  0  0  0  0  0  0  0
    4.3420   42.9984   51.1201 N   0  0  0  0  0  0  0  0  0  0  0  0
    4.0638   44.0513   51.8804 C   0  0  0  0  0  0  0  0  0  0  0  0
    2.8923   44.0357   52.6578 N   0  0  0  0  0  0  0  0  0  0  0  0
    2.0980   42.8138   52.4991 C   0  0  0  0  0  0  0  0  0  0  0  0
    0.7564   42.9490   53.2177 C   0  0  0  0  0  0  0  0  0  0  0  0
    0.9408   43.3550   54.6742 C   0  0  0  0  0  0  0  0  0  0  0  0
    1.7619   44.6359   54.7610 C   0  0  0  0  0  0  0  0  0  0  0  0
    3.1000   44.4928   54.0376 C   0  0  0  0  0  0  0  0  0  0  0  0
    4.8402   45.1271   51.9097 N   0  0  0  0  0  0  0  0  0  0  0  0
    8.4359   45.0001   49.8095 H   0  0  0  0  0  0  0  0  0  0  0  0
   10.1253   45.5852   49.6359 H   0  0  0  0  0  0  0  0  0  0  0  0
    9.7775   44.1251   50.6227 H   0  0  0  0  0  0  0  0  0  0  0  0
   11.3459   45.8825   52.0178 H   0  0  0  0  0  0  0  0  0  0  0  0
   11.1499   47.2730   54.0707 H   0  0  0  0  0  0  0  0  0  0  0  0
    8.9256   48.1614   54.7566 H   0  0  0  0  0  0  0  0  0  0  0  0
    6.9085   47.6577   53.3976 H   0  0  0  0  0  0  0  0  0  0  0  0
    6.4717   46.8977   50.5399 H   0  0  0  0  0  0  0  0  0  0  0  0
    5.7817   41.1280   50.2443 H   0  0  0  0  0  0  0  0  0  0  0  0
    7.7612   41.9653   47.8855 H   0  0  0  0  0  0  0  0  0  0  0  0
    7.6674   41.4015   45.4690 H   0  0  0  0  0  0  0  0  0  0  0  0
    5.5134   40.7141   44.4250 H   0  0  0  0  0  0  0  0  0  0  0  0
    3.4546   40.5833   45.8154 H   0  0  0  0  0  0  0  0  0  0  0  0
    2.3037   41.1265   47.7514 H   0  0  0  0  0  0  0  0  0  0  0  0
    3.1584   40.1571   48.9990 H   0  0  0  0  0  0  0  0  0  0  0  0
    3.0943   41.9467   49.1403 H   0  0  0  0  0  0  0  0  0  0  0  0
    1.9186   42.6355   51.4285 H   0  0  0  0  0  0  0  0  0  0  0  0
    2.6521   41.9705   52.9370 H   0  0  0  0  0  0  0  0  0  0  0  0
    0.1531   43.7140   52.7071 H   0  0  0  0  0  0  0  0  0  0  0  0
    0.2522   41.9716   53.1934 H   0  0  0  0  0  0  0  0  0  0  0  0
   -0.0449   43.5230   55.1326 H   0  0  0  0  0  0  0  0  0  0  0  0
    1.4697   42.5515   55.2077 H   0  0  0  0  0  0  0  0  0  0  0  0
    1.1928   45.4572   54.3010 H   0  0  0  0  0  0  0  0  0  0  0  0
    1.9636   44.8456   55.8218 H   0  0  0  0  0  0  0  0  0  0  0  0
    3.6097   45.4675   54.0232 H   0  0  0  0  0  0  0  0  0  0  0  0
    3.7144   43.7514   54.5694 H   0  0  0  0  0  0  0  0  0  0  0  0
  1  2  1  0
  2  3  2  0
  3  4  1  0
  4  5  2  0
  5  6  1  0
  6  7  2  0
  7  8  1  0
  8  9  1  0
  9 10  2  0
 10 11  1  0
 11 12  1  0
 12 13  1  0
 13 14  2  0
 14 15  1  0
 15 16  2  0
 16 17  1  0
 17 18  2  0
 18 19  1  0
 11 20  2  0
 20 21  1  0
 21 22  1  0
 22 23  1  0
 23 24  1  0
 24 25  1  0
 25 26  1  0
 26 27  1  0
 21 28  2  0
  7  2  1  0
 28  9  1  0
 18 13  1  0
 27 22  1  0
  1 29  1  0
  1 30  1  0
  1 31  1  0
  3 32  1  0
  4 33  1  0
  5 34  1  0
  6 35  1  0
  8 36  1  0
 12 37  1  0
 14 38  1  0
 15 39  1  0
 16 40  1  0
 17 41  1  0
 19 42  1  0
 19 43  1  0
 19 44  1  0
 23 45  1  0
 23 46  1  0
 24 47  1  0
 24 48  1  0
 25 49  1  0
 25 50  1  0
 26 51  1  0
 26 52  1  0
 27 53  1  0
 27 54  1  0
M  END
>  <meeko>  (452) 
{"is_sidechain": false}

>  <CID>  (452) 
Z56974472

>  <pose_index>  (452) 
5

>  <docking_score>  (452) 
-9.633

>  <rmsd_to_best_selected>  (452) 
1.2431913047204393

>  <MWT>  (452) 
374.4919999999996

>  <TPSA>  (452) 
65.97

>  <logP>  (452) 
4.965940000000003

>  <HBD>  (452) 
2

>  <HBA>  (452) 
6

>  <SMILES>  (452) 
[H]c1c([H])c([H])c(C([H])([H])[H])c(N([H])c2nc(N([H])c3c([H])c([H])c([H])c([H])c3C([H])([H])[H])nc(N3C([H])([H])C([H])([H])C([H])([H])C([H])([H])C3([H])[H])n2)c1[H]

$$$$
Z56974472_pose9
     RDKit          3D

 54 57  0  0  0  0  0  0  0  0999 V2000
    7.1641   48.2205   52.8049 C   0  0  0  0  0  0  0  0  0  0  0  0
    8.3286   47.2656   52.7739 C   0  0  0  0  0  0  0  0  0  0  0  0
    9.3722   47.4543   53.6993 C   0  0  0  0  0  0  0  0  0  0  0  0
   10.4816   46.6147   53.7026 C   0  0  0  0  0  0  0  0  0  0  0  0
   10.5596   45.5775   52.7831 C   0  0  0  0  0  0  0  0  0  0  0  0
    9.5258   45.3783   51.8635 C   0  0  0  0  0  0  0  0  0  0  0  0
    8.3878   46.1978   51.8457 C   0  0  0  0  0  0  0  0  0  0  0  0
    7.3603   46.0350   50.9053 N   0  0  0  0  0  0  0  0  0  0  0  0
    6.3290   45.1078   50.7475 C   0  0  0  0  0  0  0  0  0  0  0  0
    6.3902   44.3974   49.6334 N   0  0  0  0  0  0  0  0  0  0  0  0
    5.4353   43.4985   49.4603 C   0  0  0  0  0  0  0  0  0  0  0  0
    5.3823   42.6860   48.3276 N   0  0  0  0  0  0  0  0  0  0  0  0
    4.7713   41.4578   48.0256 C   0  0  0  0  0  0  0  0  0  0  0  0
    3.3778   41.2978   47.9957 C   0  0  0  0  0  0  0  0  0  0  0  0
    2.7854   40.0762   47.6614 C   0  0  0  0  0  0  0  0  0  0  0  0
    3.5773   38.9851   47.3366 C   0  0  0  0  0  0  0  0  0  0  0  0
    4.9625   39.1175   47.3402 C   0  0  0  0  0  0  0  0  0  0  0  0
    5.5695   40.3427   47.6715 C   0  0  0  0  0  0  0  0  0  0  0  0
    7.0739   40.4238   47.6451 C   0  0  0  0  0  0  0  0  0  0  0  0
    4.4726   43.2717   50.3457 N   0  0  0  0  0  0  0  0  0  0  0  0
    4.4798   44.0083   51.4522 C   0  0  0  0  0  0  0  0  0  0  0  0
    3.4639   43.8100   52.4037 N   0  0  0  0  0  0  0  0  0  0  0  0
    3.2394   44.9694   53.2731 C   0  0  0  0  0  0  0  0  0  0  0  0
    2.2655   44.6165   54.3959 C   0  0  0  0  0  0  0  0  0  0  0  0
    0.9742   44.0208   53.8506 C   0  0  0  0  0  0  0  0  0  0  0  0
    1.2853   42.8160   52.9704 C   0  0  0  0  0  0  0  0  0  0  0  0
    2.2610   43.1770   51.8513 C   0  0  0  0  0  0  0  0  0  0  0  0
    5.3956   44.9417   51.6737 N   0  0  0  0  0  0  0  0  0  0  0  0
    7.4029   49.0689   53.4632 H   0  0  0  0  0  0  0  0  0  0  0  0
    6.9657   48.5900   51.7880 H   0  0  0  0  0  0  0  0  0  0  0  0
    6.2731   47.7001   53.1862 H   0  0  0  0  0  0  0  0  0  0  0  0
    9.3099   48.2753   54.4287 H   0  0  0  0  0  0  0  0  0  0  0  0
   11.2922   46.7719   54.4294 H   0  0  0  0  0  0  0  0  0  0  0  0
   11.4355   44.9120   52.7781 H   0  0  0  0  0  0  0  0  0  0  0  0
    9.6068   44.5579   51.1353 H   0  0  0  0  0  0  0  0  0  0  0  0
    7.2072   46.7997   50.2656 H   0  0  0  0  0  0  0  0  0  0  0  0
    6.0468   43.0368   47.6553 H   0  0  0  0  0  0  0  0  0  0  0  0
    2.7346   42.1556   48.2416 H   0  0  0  0  0  0  0  0  0  0  0  0
    1.6896   39.9804   47.6562 H   0  0  0  0  0  0  0  0  0  0  0  0
    3.1137   38.0217   47.0778 H   0  0  0  0  0  0  0  0  0  0  0  0
    5.5912   38.2529   47.0807 H   0  0  0  0  0  0  0  0  0  0  0  0
    7.4983   39.4953   48.0548 H   0  0  0  0  0  0  0  0  0  0  0  0
    7.4158   40.5570   46.6081 H   0  0  0  0  0  0  0  0  0  0  0  0
    7.4058   41.2782   48.2533 H   0  0  0  0  0  0  0  0  0  0  0  0
    4.1981   45.2842   53.7111 H   0  0  0  0  0  0  0  0  0  0  0  0
    2.8100   45.7855   52.6734 H   0  0  0  0  0  0  0  0  0  0  0  0
    2.7418   43.8846   55.0648 H   0  0  0  0  0  0  0  0  0  0  0  0
    2.0163   45.5403   54.9386 H   0  0  0  0  0  0  0  0  0  0  0  0
    0.3368   43.7040   54.6892 H   0  0  0  0  0  0  0  0  0  0  0  0
    0.4519   44.7804   53.2504 H   0  0  0  0  0  0  0  0  0  0  0  0
    1.7307   42.0250   53.5916 H   0  0  0  0  0  0  0  0  0  0  0  0
    0.3464   42.4719   52.5120 H   0  0  0  0  0  0  0  0  0  0  0  0
    2.5482   42.2622   51.3122 H   0  0  0  0  0  0  0  0  0  0  0  0
    1.7703   43.8829   51.1651 H   0  0  0  0  0  0  0  0  0  0  0  0
  1  2  1  0
  2  3  2  0
  3  4  1  0
  4  5  2  0
  5  6  1  0
  6  7  2  0
  7  8  1  0
  8  9  1  0
  9 10  2  0
 10 11  1  0
 11 12  1  0
 12 13  1  0
 13 14  2  0
 14 15  1  0
 15 16  2  0
 16 17  1  0
 17 18  2  0
 18 19  1  0
 11 20  2  0
 20 21  1  0
 21 22  1  0
 22 23  1  0
 23 24  1  0
 24 25  1  0
 25 26  1  0
 26 27  1  0
 21 28  2  0
  7  2  1  0
 28  9  1  0
 18 13  1  0
 27 22  1  0
  1 29  1  0
  1 30  1  0
  1 31  1  0
  3 32  1  0
  4 33  1  0
  5 34  1  0
  6 35  1  0
  8 36  1  0
 12 37  1  0
 14 38  1  0
 15 39  1  0
 16 40  1  0
 17 41  1  0
 19 42  1  0
 19 43  1  0
 19 44  1  0
 23 45  1  0
 23 46  1  0
 24 47  1  0
 24 48  1  0
 25 49  1  0
 25 50  1  0
 26 51  1  0
 26 52  1  0
 27 53  1  0
 27 54  1  0
M  END
>  <meeko>  (453) 
{"is_sidechain": false}

>  <CID>  (453) 
Z56974472

>  <pose_index>  (453) 
9

>  <docking_score>  (453) 
-9.021

>  <rmsd_to_best_selected>  (453) 
1.2692351804708963

>  <MWT>  (453) 
374.4919999999996

>  <TPSA>  (453) 
65.97

>  <logP>  (453) 
4.965940000000003

>  <HBD>  (453) 
2

>  <HBA>  (453) 
6

>  <SMILES>  (453) 
[H]c1c([H])c([H])c(C([H])([H])[H])c(N([H])c2nc(N([H])c3c([H])c([H])c([H])c([H])c3C([H])([H])[H])nc(N3C([H])([H])C([H])([H])C([H])([H])C([H])([H])C3([H])[H])n2)c1[H]

$$$$
Z56974472_pose10
     RDKit          3D

 54 57  0  0  0  0  0  0  0  0999 V2000
    7.0880   42.0040   47.1140 C   0  0  0  0  0  0  0  0  0  0  0  0
    6.1110   40.9305   47.5158 C   0  0  0  0  0  0  0  0  0  0  0  0
    6.4217   39.5933   47.2036 C   0  0  0  0  0  0  0  0  0  0  0  0
    5.5458   38.5640   47.5327 C   0  0  0  0  0  0  0  0  0  0  0  0
    4.3538   38.8568   48.1792 C   0  0  0  0  0  0  0  0  0  0  0  0
    4.0382   40.1814   48.4993 C   0  0  0  0  0  0  0  0  0  0  0  0
    4.9068   41.2399   48.1939 C   0  0  0  0  0  0  0  0  0  0  0  0
    4.5883   42.5769   48.4728 N   0  0  0  0  0  0  0  0  0  0  0  0
    4.7095   43.3856   49.6036 C   0  0  0  0  0  0  0  0  0  0  0  0
    5.8167   44.1102   49.6489 N   0  0  0  0  0  0  0  0  0  0  0  0
    5.9553   44.8993   50.7017 C   0  0  0  0  0  0  0  0  0  0  0  0
    7.0756   45.7129   50.8720 N   0  0  0  0  0  0  0  0  0  0  0  0
    8.2660   45.6056   51.6099 C   0  0  0  0  0  0  0  0  0  0  0  0
    9.3620   44.8501   51.1654 C   0  0  0  0  0  0  0  0  0  0  0  0
   10.5516   44.7808   51.8968 C   0  0  0  0  0  0  0  0  0  0  0  0
   10.6761   45.4782   53.0898 C   0  0  0  0  0  0  0  0  0  0  0  0
    9.6123   46.2506   53.5475 C   0  0  0  0  0  0  0  0  0  0  0  0
    8.4116   46.3298   52.8184 C   0  0  0  0  0  0  0  0  0  0  0  0
    7.3030   47.1935   53.3623 C   0  0  0  0  0  0  0  0  0  0  0  0
    5.0452   45.0082   51.6618 N   0  0  0  0  0  0  0  0  0  0  0  0
    3.9485   44.2656   51.5465 C   0  0  0  0  0  0  0  0  0  0  0  0
    2.9706   44.3406   52.5537 N   0  0  0  0  0  0  0  0  0  0  0  0
    2.7218   45.7043   53.0315 C   0  0  0  0  0  0  0  0  0  0  0  0
    1.7973   45.6862   54.2473 C   0  0  0  0  0  0  0  0  0  0  0  0
    0.5172   44.9108   53.9650 C   0  0  0  0  0  0  0  0  0  0  0  0
    0.8525   43.5030   53.4861 C   0  0  0  0  0  0  0  0  0  0  0  0
    1.7794   43.5309   52.2717 C   0  0  0  0  0  0  0  0  0  0  0  0
    3.7602   43.4376   50.5275 N   0  0  0  0  0  0  0  0  0  0  0  0
    6.7662   42.9685   47.5338 H   0  0  0  0  0  0  0  0  0  0  0  0
    8.0877   41.7523   47.4979 H   0  0  0  0  0  0  0  0  0  0  0  0
    7.1238   42.0753   46.0169 H   0  0  0  0  0  0  0  0  0  0  0  0
    7.3680   39.3598   46.6936 H   0  0  0  0  0  0  0  0  0  0  0  0
    5.7971   37.5229   47.2816 H   0  0  0  0  0  0  0  0  0  0  0  0
    3.6565   38.0470   48.4401 H   0  0  0  0  0  0  0  0  0  0  0  0
    3.0849   40.3986   49.0032 H   0  0  0  0  0  0  0  0  0  0  0  0
    4.3443   43.1569   47.6855 H   0  0  0  0  0  0  0  0  0  0  0  0
    6.8790   46.6118   50.4589 H   0  0  0  0  0  0  0  0  0  0  0  0
    9.2831   44.2982   50.2171 H   0  0  0  0  0  0  0  0  0  0  0  0
   11.3898   44.1727   51.5260 H   0  0  0  0  0  0  0  0  0  0  0  0
   11.6089   45.4211   53.6699 H   0  0  0  0  0  0  0  0  0  0  0  0
    9.7117   46.8062   54.4916 H   0  0  0  0  0  0  0  0  0  0  0  0
    7.6601   48.2292   53.4613 H   0  0  0  0  0  0  0  0  0  0  0  0
    6.4452   47.1655   52.6743 H   0  0  0  0  0  0  0  0  0  0  0  0
    6.9945   46.8162   54.3485 H   0  0  0  0  0  0  0  0  0  0  0  0
    3.6784   46.1698   53.3112 H   0  0  0  0  0  0  0  0  0  0  0  0
    2.2400   46.2800   52.2274 H   0  0  0  0  0  0  0  0  0  0  0  0
    2.3235   45.2127   55.0892 H   0  0  0  0  0  0  0  0  0  0  0  0
    1.5252   46.7243   54.4889 H   0  0  0  0  0  0  0  0  0  0  0  0
   -0.0813   44.8490   54.8859 H   0  0  0  0  0  0  0  0  0  0  0  0
   -0.0537   45.4312   53.1819 H   0  0  0  0  0  0  0  0  0  0  0  0
    1.3483   42.9565   54.3019 H   0  0  0  0  0  0  0  0  0  0  0  0
   -0.0841   43.0054   53.1943 H   0  0  0  0  0  0  0  0  0  0  0  0
    2.0890   42.5037   52.0288 H   0  0  0  0  0  0  0  0  0  0  0  0
    1.2400   43.9750   51.4222 H   0  0  0  0  0  0  0  0  0  0  0  0
  1  2  1  0
  2  3  2  0
  3  4  1  0
  4  5  2  0
  5  6  1  0
  6  7  2  0
  7  8  1  0
  8  9  1  0
  9 10  2  0
 10 11  1  0
 11 12  1  0
 12 13  1  0
 13 14  2  0
 14 15  1  0
 15 16  2  0
 16 17  1  0
 17 18  2  0
 18 19  1  0
 11 20  2  0
 20 21  1  0
 21 22  1  0
 22 23  1  0
 23 24  1  0
 24 25  1  0
 25 26  1  0
 26 27  1  0
 21 28  2  0
  7  2  1  0
 28  9  1  0
 18 13  1  0
 27 22  1  0
  1 29  1  0
  1 30  1  0
  1 31  1  0
  3 32  1  0
  4 33  1  0
  5 34  1  0
  6 35  1  0
  8 36  1  0
 12 37  1  0
 14 38  1  0
 15 39  1  0
 16 40  1  0
 17 41  1  0
 19 42  1  0
 19 43  1  0
 19 44  1  0
 23 45  1  0
 23 46  1  0
 24 47  1  0
 24 48  1  0
 25 49  1  0
 25 50  1  0
 26 51  1  0
 26 52  1  0
 27 53  1  0
 27 54  1  0
M  END
>  <meeko>  (454) 
{"is_sidechain": false}

>  <CID>  (454) 
Z56974472

>  <pose_index>  (454) 
10

>  <docking_score>  (454) 
-8.924

>  <rmsd_to_best_selected>  (454) 
1.4891192144610321

>  <MWT>  (454) 
374.4919999999996

>  <TPSA>  (454) 
65.97

>  <logP>  (454) 
4.965940000000003

>  <HBD>  (454) 
2

>  <HBA>  (454) 
6

>  <SMILES>  (454) 
[H]c1c([H])c([H])c(C([H])([H])[H])c(N([H])c2nc(N([H])c3c([H])c([H])c([H])c([H])c3C([H])([H])[H])nc(N3C([H])([H])C([H])([H])C([H])([H])C([H])([H])C3([H])[H])n2)c1[H]

$$$$
Z57110395_pose1
     RDKit          3D

 40 43  0  0  0  0  0  0  0  0999 V2000
   -0.5130   42.3150   53.8400 O   0  0  0  0  0  0  0  0  0  0  0  0
   -0.6640   43.5310   54.1830 C   0  0  0  0  0  0  0  0  0  0  0  0
   -1.7350   44.0480   54.6320 O   0  0  0  0  0  1  0  0  0  0  0  0
    0.5410   44.4430   54.0450 C   0  0  0  0  0  0  0  0  0  0  0  0
    0.7400   45.2130   52.8920 C   0  0  0  0  0  0  0  0  0  0  0  0
    1.8550   46.0560   52.7630 C   0  0  0  0  0  0  0  0  0  0  0  0
    2.8070   46.1570   53.7800 C   0  0  0  0  0  0  0  0  0  0  0  0
    3.9410   46.9750   53.7170 N   0  0  0  0  0  0  0  0  0  0  0  0
    5.2760   46.7620   53.3950 C   0  0  0  0  0  0  0  0  0  0  0  0
    5.4780   45.9560   52.3440 N   0  0  0  0  0  0  0  0  0  0  0  0
    6.7540   45.7010   51.9810 C   0  0  0  0  0  0  0  0  0  0  0  0
    6.8670   44.7850   50.8340 C   0  0  0  0  0  0  0  0  0  0  0  0
    5.9150   43.7720   50.6350 C   0  0  0  0  0  0  0  0  0  0  0  0
    6.0130   42.8990   49.5490 C   0  0  0  0  0  0  0  0  0  0  0  0
    7.0700   43.0210   48.6500 C   0  0  0  0  0  0  0  0  0  0  0  0
    8.0330   44.0090   48.8400 C   0  0  0  0  0  0  0  0  0  0  0  0
    7.9350   44.8820   49.9250 C   0  0  0  0  0  0  0  0  0  0  0  0
    7.8600   46.2570   52.6360 C   0  0  0  0  0  0  0  0  0  0  0  0
    9.2260   46.0660   52.2890 C   0  0  0  0  0  0  0  0  0  0  0  0
   10.2400   46.6760   53.0220 C   0  0  0  0  0  0  0  0  0  0  0  0
    9.9070   47.4830   54.1010 C   0  0  0  0  0  0  0  0  0  0  0  0
    8.5630   47.6760   54.4330 C   0  0  0  0  0  0  0  0  0  0  0  0
    7.5330   47.0790   53.7150 C   0  0  0  0  0  0  0  0  0  0  0  0
    6.2740   47.3220   54.0860 N   0  0  0  0  0  0  0  0  0  0  0  0
    2.6050   45.3840   54.9360 C   0  0  0  0  0  0  0  0  0  0  0  0
    1.4930   44.5420   55.0670 C   0  0  0  0  0  0  0  0  0  0  0  0
    0.0088   45.1560   52.0722 H   0  0  0  0  0  0  0  0  0  0  0  0
    1.9813   46.6477   51.8444 H   0  0  0  0  0  0  0  0  0  0  0  0
    3.8030   47.9480   53.9470 H   0  0  0  0  0  0  0  0  0  0  0  0
    5.0808   43.6645   51.3439 H   0  0  0  0  0  0  0  0  0  0  0  0
    5.2553   42.1150   49.4037 H   0  0  0  0  0  0  0  0  0  0  0  0
    7.1440   42.3378   47.7911 H   0  0  0  0  0  0  0  0  0  0  0  0
    8.8718   44.1016   48.1344 H   0  0  0  0  0  0  0  0  0  0  0  0
    8.7033   45.6557   50.0705 H   0  0  0  0  0  0  0  0  0  0  0  0
    9.4844   45.4283   51.4307 H   0  0  0  0  0  0  0  0  0  0  0  0
   11.2941   46.5201   52.7490 H   0  0  0  0  0  0  0  0  0  0  0  0
   10.6973   47.9686   54.6923 H   0  0  0  0  0  0  0  0  0  0  0  0
    8.3125   48.3201   55.2888 H   0  0  0  0  0  0  0  0  0  0  0  0
    3.3360   45.4413   55.7560 H   0  0  0  0  0  0  0  0  0  0  0  0
    1.3660   43.9504   55.9856 H   0  0  0  0  0  0  0  0  0  0  0  0
  1  2  2  0
  2  3  1  0
  2  4  1  0
  4  5  2  0
  5  6  1  0
  6  7  2  0
  7  8  1  0
  8  9  1  0
  9 10  2  0
 10 11  1  0
 11 12  1  0
 12 13  2  0
 13 14  1  0
 14 15  2  0
 15 16  1  0
 16 17  2  0
 11 18  2  0
 18 19  1  0
 19 20  2  0
 20 21  1  0
 21 22  2  0
 22 23  1  0
 23 24  2  0
  7 25  1  0
 25 26  2  0
 26  4  1  0
 24  9  1  0
 17 12  1  0
 23 18  1  0
  5 27  1  0
  6 28  1  0
  8 29  1  0
 13 30  1  0
 14 31  1  0
 15 32  1  0
 16 33  1  0
 17 34  1  0
 19 35  1  0
 20 36  1  0
 21 37  1  0
 22 38  1  0
 25 39  1  0
 26 40  1  0
M  CHG  1   3  -1
M  END
>  <meeko>  (455) 
{"is_sidechain": false}

>  <CID>  (455) 
Z57110395

>  <pose_index>  (455) 
1

>  <docking_score>  (455) 
-10.546

>  <rmsd_to_best_selected>  (455) 
0.0

>  <MWT>  (455) 
340.3619999999998

>  <TPSA>  (455) 
77.94

>  <logP>  (455) 
3.403900000000001

>  <HBD>  (455) 
1

>  <HBA>  (455) 
5

>  <SMILES>  (455) 
[H]c1c([H])c([H])c(-c2nc(N([H])c3c([H])c([H])c(C(=O)[O-])c([H])c3[H])nc3c([H])c([H])c([H])c([H])c23)c([H])c1[H]

$$$$
Z57110395_pose2
     RDKit          3D

 40 43  0  0  0  0  0  0  0  0999 V2000
   -1.1820   43.0643   54.3571 O   0  0  0  0  0  0  0  0  0  0  0  0
   -0.8457   43.9036   53.4615 C   0  0  0  0  0  0  0  0  0  0  0  0
   -1.5133   44.1797   52.4157 O   0  0  0  0  0  1  0  0  0  0  0  0
    0.4675   44.6371   53.6597 C   0  0  0  0  0  0  0  0  0  0  0  0
    1.1086   45.2784   52.5927 C   0  0  0  0  0  0  0  0  0  0  0  0
    2.3238   45.9571   52.7760 C   0  0  0  0  0  0  0  0  0  0  0  0
    2.9386   46.0156   54.0290 C   0  0  0  0  0  0  0  0  0  0  0  0
    4.1484   46.6726   54.2810 N   0  0  0  0  0  0  0  0  0  0  0  0
    5.4418   46.5497   53.7848 C   0  0  0  0  0  0  0  0  0  0  0  0
    5.5582   45.7655   52.7058 N   0  0  0  0  0  0  0  0  0  0  0  0
    6.7895   45.5975   52.1776 C   0  0  0  0  0  0  0  0  0  0  0  0
    6.8119   44.6975   51.0130 C   0  0  0  0  0  0  0  0  0  0  0  0
    6.4068   45.1581   49.7498 C   0  0  0  0  0  0  0  0  0  0  0  0
    6.4265   44.3128   48.6378 C   0  0  0  0  0  0  0  0  0  0  0  0
    6.8420   42.9906   48.7755 C   0  0  0  0  0  0  0  0  0  0  0  0
    7.2332   42.5107   50.0228 C   0  0  0  0  0  0  0  0  0  0  0  0
    7.2151   43.3567   51.1347 C   0  0  0  0  0  0  0  0  0  0  0  0
    7.9324   46.2215   52.6920 C   0  0  0  0  0  0  0  0  0  0  0  0
    9.2506   46.1240   52.1692 C   0  0  0  0  0  0  0  0  0  0  0  0
   10.3100   46.7959   52.7739 C   0  0  0  0  0  0  0  0  0  0  0  0
   10.0689   47.5721   53.8978 C   0  0  0  0  0  0  0  0  0  0  0  0
    8.7694   47.6738   54.4030 C   0  0  0  0  0  0  0  0  0  0  0  0
    7.6960   47.0145   53.8162 C   0  0  0  0  0  0  0  0  0  0  0  0
    6.4827   47.1708   54.3496 N   0  0  0  0  0  0  0  0  0  0  0  0
    2.2929   45.3706   55.0968 C   0  0  0  0  0  0  0  0  0  0  0  0
    1.0802   44.6938   54.9169 C   0  0  0  0  0  0  0  0  0  0  0  0
    0.6516   45.2499   51.5925 H   0  0  0  0  0  0  0  0  0  0  0  0
    2.8006   46.4519   51.9170 H   0  0  0  0  0  0  0  0  0  0  0  0
    4.1216   47.4100   54.9676 H   0  0  0  0  0  0  0  0  0  0  0  0
    6.0693   46.1986   49.6343 H   0  0  0  0  0  0  0  0  0  0  0  0
    6.1139   44.6914   47.6534 H   0  0  0  0  0  0  0  0  0  0  0  0
    6.8611   42.3257   47.8994 H   0  0  0  0  0  0  0  0  0  0  0  0
    7.5567   41.4652   50.1328 H   0  0  0  0  0  0  0  0  0  0  0  0
    7.5202   42.9684   52.1176 H   0  0  0  0  0  0  0  0  0  0  0  0
    9.4363   45.5099   51.2757 H   0  0  0  0  0  0  0  0  0  0  0  0
   11.3275   46.7119   52.3644 H   0  0  0  0  0  0  0  0  0  0  0  0
   10.8962   48.1051   54.3892 H   0  0  0  0  0  0  0  0  0  0  0  0
    8.5909   48.2952   55.2929 H   0  0  0  0  0  0  0  0  0  0  0  0
    2.7501   45.3978   56.0969 H   0  0  0  0  0  0  0  0  0  0  0  0
    0.6024   44.1997   55.7757 H   0  0  0  0  0  0  0  0  0  0  0  0
  1  2  2  0
  2  3  1  0
  2  4  1  0
  4  5  2  0
  5  6  1  0
  6  7  2  0
  7  8  1  0
  8  9  1  0
  9 10  2  0
 10 11  1  0
 11 12  1  0
 12 13  2  0
 13 14  1  0
 14 15  2  0
 15 16  1  0
 16 17  2  0
 11 18  2  0
 18 19  1  0
 19 20  2  0
 20 21  1  0
 21 22  2  0
 22 23  1  0
 23 24  2  0
  7 25  1  0
 25 26  2  0
 26  4  1  0
 24  9  1  0
 17 12  1  0
 23 18  1  0
  5 27  1  0
  6 28  1  0
  8 29  1  0
 13 30  1  0
 14 31  1  0
 15 32  1  0
 16 33  1  0
 17 34  1  0
 19 35  1  0
 20 36  1  0
 21 37  1  0
 22 38  1  0
 25 39  1  0
 26 40  1  0
M  CHG  1   3  -1
M  END
>  <meeko>  (456) 
{"is_sidechain": false}

>  <CID>  (456) 
Z57110395

>  <pose_index>  (456) 
2

>  <docking_score>  (456) 
-9.566

>  <rmsd_to_best_selected>  (456) 
1.1398345757572395

>  <MWT>  (456) 
340.3619999999998

>  <TPSA>  (456) 
77.94

>  <logP>  (456) 
3.403900000000001

>  <HBD>  (456) 
1

>  <HBA>  (456) 
5

>  <SMILES>  (456) 
[H]c1c([H])c([H])c(-c2nc(N([H])c3c([H])c([H])c(C(=O)[O-])c([H])c3[H])nc3c([H])c([H])c([H])c([H])c23)c([H])c1[H]

$$$$
Z57110395_pose3
     RDKit          3D

 40 43  0  0  0  0  0  0  0  0999 V2000
   -1.3178   43.1353   53.6702 O   0  0  0  0  0  0  0  0  0  0  0  0
   -0.6369   43.5480   54.6640 C   0  0  0  0  0  0  0  0  0  0  0  0
   -0.8612   43.2681   55.8834 O   0  0  0  0  0  1  0  0  0  0  0  0
    0.5442   44.4516   54.3640 C   0  0  0  0  0  0  0  0  0  0  0  0
    0.8625   45.5297   55.1998 C   0  0  0  0  0  0  0  0  0  0  0  0
    1.9557   46.3662   54.9231 C   0  0  0  0  0  0  0  0  0  0  0  0
    2.7638   46.1551   53.8032 C   0  0  0  0  0  0  0  0  0  0  0  0
    3.8659   46.9499   53.4679 N   0  0  0  0  0  0  0  0  0  0  0  0
    5.2125   46.6943   53.2338 C   0  0  0  0  0  0  0  0  0  0  0  0
    5.4660   45.9991   52.1180 N   0  0  0  0  0  0  0  0  0  0  0  0
    6.7548   45.7099   51.8336 C   0  0  0  0  0  0  0  0  0  0  0  0
    6.9233   44.9212   50.6030 C   0  0  0  0  0  0  0  0  0  0  0  0
    7.3124   45.5427   49.4055 C   0  0  0  0  0  0  0  0  0  0  0  0
    7.4756   44.8030   48.2322 C   0  0  0  0  0  0  0  0  0  0  0  0
    7.2439   43.4300   48.2366 C   0  0  0  0  0  0  0  0  0  0  0  0
    6.8424   42.7971   49.4111 C   0  0  0  0  0  0  0  0  0  0  0  0
    6.6792   43.5368   50.5844 C   0  0  0  0  0  0  0  0  0  0  0  0
    7.8254   46.1238   52.6374 C   0  0  0  0  0  0  0  0  0  0  0  0
    9.2049   45.8912   52.3836 C   0  0  0  0  0  0  0  0  0  0  0  0
   10.1799   46.3559   53.2628 C   0  0  0  0  0  0  0  0  0  0  0  0
    9.7933   47.0567   54.3960 C   0  0  0  0  0  0  0  0  0  0  0  0
    8.4368   47.2919   54.6367 C   0  0  0  0  0  0  0  0  0  0  0  0
    7.4458   46.8401   53.7726 C   0  0  0  0  0  0  0  0  0  0  0  0
    6.1719   47.1143   54.0642 N   0  0  0  0  0  0  0  0  0  0  0  0
    2.4425   45.0727   52.9673 C   0  0  0  0  0  0  0  0  0  0  0  0
    1.3523   44.2353   53.2413 C   0  0  0  0  0  0  0  0  0  0  0  0
    0.2450   45.7244   56.0890 H   0  0  0  0  0  0  0  0  0  0  0  0
    2.1800   47.2033   55.6006 H   0  0  0  0  0  0  0  0  0  0  0  0
    3.6876   47.9363   53.3585 H   0  0  0  0  0  0  0  0  0  0  0  0
    7.4913   46.6280   49.3913 H   0  0  0  0  0  0  0  0  0  0  0  0
    7.7873   45.3051   47.3044 H   0  0  0  0  0  0  0  0  0  0  0  0
    7.3777   42.8459   47.3142 H   0  0  0  0  0  0  0  0  0  0  0  0
    6.6537   41.7134   49.4143 H   0  0  0  0  0  0  0  0  0  0  0  0
    6.3557   43.0299   51.5055 H   0  0  0  0  0  0  0  0  0  0  0  0
    9.5057   45.3375   51.4819 H   0  0  0  0  0  0  0  0  0  0  0  0
   11.2450   46.1692   53.0610 H   0  0  0  0  0  0  0  0  0  0  0  0
   10.5514   47.4258   55.1024 H   0  0  0  0  0  0  0  0  0  0  0  0
    8.1444   47.8516   55.5374 H   0  0  0  0  0  0  0  0  0  0  0  0
    3.0601   44.8779   52.0782 H   0  0  0  0  0  0  0  0  0  0  0  0
    1.1286   43.3970   52.5651 H   0  0  0  0  0  0  0  0  0  0  0  0
  1  2  2  0
  2  3  1  0
  2  4  1  0
  4  5  2  0
  5  6  1  0
  6  7  2  0
  7  8  1  0
  8  9  1  0
  9 10  2  0
 10 11  1  0
 11 12  1  0
 12 13  2  0
 13 14  1  0
 14 15  2  0
 15 16  1  0
 16 17  2  0
 11 18  2  0
 18 19  1  0
 19 20  2  0
 20 21  1  0
 21 22  2  0
 22 23  1  0
 23 24  2  0
  7 25  1  0
 25 26  2  0
 26  4  1  0
 24  9  1  0
 17 12  1  0
 23 18  1  0
  5 27  1  0
  6 28  1  0
  8 29  1  0
 13 30  1  0
 14 31  1  0
 15 32  1  0
 16 33  1  0
 17 34  1  0
 19 35  1  0
 20 36  1  0
 21 37  1  0
 22 38  1  0
 25 39  1  0
 26 40  1  0
M  CHG  1   3  -1
M  END
>  <meeko>  (457) 
{"is_sidechain": false}

>  <CID>  (457) 
Z57110395

>  <pose_index>  (457) 
3

>  <docking_score>  (457) 
-9.55

>  <rmsd_to_best_selected>  (457) 
1.0616985582600778

>  <MWT>  (457) 
340.3619999999998

>  <TPSA>  (457) 
77.94

>  <logP>  (457) 
3.403900000000001

>  <HBD>  (457) 
1

>  <HBA>  (457) 
5

>  <SMILES>  (457) 
[H]c1c([H])c([H])c(-c2nc(N([H])c3c([H])c([H])c(C(=O)[O-])c([H])c3[H])nc3c([H])c([H])c([H])c([H])c23)c([H])c1[H]

$$$$
Z57110395_pose5
     RDKit          3D

 40 43  0  0  0  0  0  0  0  0999 V2000
   -1.0073   42.6864   53.9123 O   0  0  0  0  0  0  0  0  0  0  0  0
   -0.7692   43.7818   53.3089 C   0  0  0  0  0  0  0  0  0  0  0  0
   -1.5288   44.3383   52.4547 O   0  0  0  0  0  1  0  0  0  0  0  0
    0.5358   44.4817   53.6360 C   0  0  0  0  0  0  0  0  0  0  0  0
    1.1403   44.3405   54.8918 C   0  0  0  0  0  0  0  0  0  0  0  0
    2.3476   44.9882   55.1958 C   0  0  0  0  0  0  0  0  0  0  0  0
    2.9909   45.7980   54.2565 C   0  0  0  0  0  0  0  0  0  0  0  0
    4.1942   46.4734   54.4927 N   0  0  0  0  0  0  0  0  0  0  0  0
    5.4689   46.4056   53.9441 C   0  0  0  0  0  0  0  0  0  0  0  0
    5.5440   45.7630   52.7721 N   0  0  0  0  0  0  0  0  0  0  0  0
    6.7565   45.6545   52.1869 C   0  0  0  0  0  0  0  0  0  0  0  0
    6.7328   44.9083   50.9183 C   0  0  0  0  0  0  0  0  0  0  0  0
    7.1699   43.5749   50.8683 C   0  0  0  0  0  0  0  0  0  0  0  0
    7.1498   42.8572   49.6695 C   0  0  0  0  0  0  0  0  0  0  0  0
    6.7007   43.4674   48.4999 C   0  0  0  0  0  0  0  0  0  0  0  0
    6.2784   44.7942   48.5267 C   0  0  0  0  0  0  0  0  0  0  0  0
    6.2969   45.5112   49.7255 C   0  0  0  0  0  0  0  0  0  0  0  0
    7.9218   46.2015   52.7382 C   0  0  0  0  0  0  0  0  0  0  0  0
    9.2215   46.1623   52.1646 C   0  0  0  0  0  0  0  0  0  0  0  0
   10.3065   46.7451   52.8143 C   0  0  0  0  0  0  0  0  0  0  0  0
   10.1080   47.3761   54.0344 C   0  0  0  0  0  0  0  0  0  0  0  0
    8.8272   47.4213   54.5905 C   0  0  0  0  0  0  0  0  0  0  0  0
    7.7285   46.8480   53.9601 C   0  0  0  0  0  0  0  0  0  0  0  0
    6.5341   46.9443   54.5483 N   0  0  0  0  0  0  0  0  0  0  0  0
    2.3825   45.9377   52.9980 C   0  0  0  0  0  0  0  0  0  0  0  0
    1.1780   45.2922   52.6915 C   0  0  0  0  0  0  0  0  0  0  0  0
    0.6595   43.7100   55.6541 H   0  0  0  0  0  0  0  0  0  0  0  0
    2.7955   44.8559   56.1917 H   0  0  0  0  0  0  0  0  0  0  0  0
    4.1755   47.1784   55.2136 H   0  0  0  0  0  0  0  0  0  0  0  0
    7.5333   43.0884   51.7855 H   0  0  0  0  0  0  0  0  0  0  0  0
    7.4884   41.8108   49.6490 H   0  0  0  0  0  0  0  0  0  0  0  0
    6.6798   42.9018   47.5567 H   0  0  0  0  0  0  0  0  0  0  0  0
    5.9297   45.2784   47.6025 H   0  0  0  0  0  0  0  0  0  0  0  0
    5.9664   46.5603   49.7362 H   0  0  0  0  0  0  0  0  0  0  0  0
    9.3723   45.6652   51.1950 H   0  0  0  0  0  0  0  0  0  0  0  0
   11.3100   46.7059   52.3654 H   0  0  0  0  0  0  0  0  0  0  0  0
   10.9555   47.8387   54.5614 H   0  0  0  0  0  0  0  0  0  0  0  0
    8.6834   47.9261   55.5572 H   0  0  0  0  0  0  0  0  0  0  0  0
    2.8632   46.5686   52.2358 H   0  0  0  0  0  0  0  0  0  0  0  0
    0.7302   45.4235   51.6954 H   0  0  0  0  0  0  0  0  0  0  0  0
  1  2  2  0
  2  3  1  0
  2  4  1  0
  4  5  2  0
  5  6  1  0
  6  7  2  0
  7  8  1  0
  8  9  1  0
  9 10  2  0
 10 11  1  0
 11 12  1  0
 12 13  2  0
 13 14  1  0
 14 15  2  0
 15 16  1  0
 16 17  2  0
 11 18  2  0
 18 19  1  0
 19 20  2  0
 20 21  1  0
 21 22  2  0
 22 23  1  0
 23 24  2  0
  7 25  1  0
 25 26  2  0
 26  4  1  0
 24  9  1  0
 17 12  1  0
 23 18  1  0
  5 27  1  0
  6 28  1  0
  8 29  1  0
 13 30  1  0
 14 31  1  0
 15 32  1  0
 16 33  1  0
 17 34  1  0
 19 35  1  0
 20 36  1  0
 21 37  1  0
 22 38  1  0
 25 39  1  0
 26 40  1  0
M  CHG  1   3  -1
M  END
>  <meeko>  (458) 
{"is_sidechain": false}

>  <CID>  (458) 
Z57110395

>  <pose_index>  (458) 
5

>  <docking_score>  (458) 
-9.446

>  <rmsd_to_best_selected>  (458) 
1.1510936317937541

>  <MWT>  (458) 
340.3619999999998

>  <TPSA>  (458) 
77.94

>  <logP>  (458) 
3.403900000000001

>  <HBD>  (458) 
1

>  <HBA>  (458) 
5

>  <SMILES>  (458) 
[H]c1c([H])c([H])c(-c2nc(N([H])c3c([H])c([H])c(C(=O)[O-])c([H])c3[H])nc3c([H])c([H])c([H])c([H])c23)c([H])c1[H]

$$$$
Z57110395_pose6
     RDKit          3D

 40 43  0  0  0  0  0  0  0  0999 V2000
   -1.8492   45.5050   54.3671 O   0  0  0  0  0  0  0  0  0  0  0  0
   -1.0781   44.8488   53.5957 C   0  0  0  0  0  0  0  0  0  0  0  0
   -1.4405   44.1834   52.5754 O   0  0  0  0  0  1  0  0  0  0  0  0
    0.4027   44.8642   53.9233 C   0  0  0  0  0  0  0  0  0  0  0  0
    0.8539   45.0423   55.2377 C   0  0  0  0  0  0  0  0  0  0  0  0
    2.2239   45.0572   55.5405 C   0  0  0  0  0  0  0  0  0  0  0  0
    3.1884   44.8959   54.5430 C   0  0  0  0  0  0  0  0  0  0  0  0
    4.5684   44.9016   54.7747 N   0  0  0  0  0  0  0  0  0  0  0  0
    5.6675   45.3993   54.0844 C   0  0  0  0  0  0  0  0  0  0  0  0
    5.8181   44.9168   52.8451 N   0  0  0  0  0  0  0  0  0  0  0  0
    6.8708   45.3530   52.1201 C   0  0  0  0  0  0  0  0  0  0  0  0
    6.9598   44.7420   50.7841 C   0  0  0  0  0  0  0  0  0  0  0  0
    5.9655   43.8564   50.3383 C   0  0  0  0  0  0  0  0  0  0  0  0
    6.0399   43.2727   49.0709 C   0  0  0  0  0  0  0  0  0  0  0  0
    7.1160   43.5587   48.2348 C   0  0  0  0  0  0  0  0  0  0  0  0
    8.1213   44.4222   48.6654 C   0  0  0  0  0  0  0  0  0  0  0  0
    8.0450   45.0074   49.9319 C   0  0  0  0  0  0  0  0  0  0  0  0
    7.7871   46.2985   52.5982 C   0  0  0  0  0  0  0  0  0  0  0  0
    8.8932   46.8334   51.8833 C   0  0  0  0  0  0  0  0  0  0  0  0
    9.7370   47.7721   52.4720 C   0  0  0  0  0  0  0  0  0  0  0  0
    9.4862   48.1890   53.7719 C   0  0  0  0  0  0  0  0  0  0  0  0
    8.3930   47.6689   54.4676 C   0  0  0  0  0  0  0  0  0  0  0  0
    7.5359   46.7324   53.9013 C   0  0  0  0  0  0  0  0  0  0  0  0
    6.5043   46.2912   54.6248 N   0  0  0  0  0  0  0  0  0  0  0  0
    2.7336   44.7178   53.2259 C   0  0  0  0  0  0  0  0  0  0  0  0
    1.3660   44.7020   52.9199 C   0  0  0  0  0  0  0  0  0  0  0  0
    0.1206   45.1728   56.0471 H   0  0  0  0  0  0  0  0  0  0  0  0
    2.5445   45.1985   56.5832 H   0  0  0  0  0  0  0  0  0  0  0  0
    4.8802   44.4584   55.6252 H   0  0  0  0  0  0  0  0  0  0  0  0
    5.1162   43.6189   50.9958 H   0  0  0  0  0  0  0  0  0  0  0  0
    5.2485   42.5872   48.7338 H   0  0  0  0  0  0  0  0  0  0  0  0
    7.1724   43.1033   47.2351 H   0  0  0  0  0  0  0  0  0  0  0  0
    8.9751   44.6432   48.0081 H   0  0  0  0  0  0  0  0  0  0  0  0
    8.8449   45.6845   50.2661 H   0  0  0  0  0  0  0  0  0  0  0  0
    9.0852   46.5018   50.8521 H   0  0  0  0  0  0  0  0  0  0  0  0
   10.5927   48.1786   51.9130 H   0  0  0  0  0  0  0  0  0  0  0  0
   10.1461   48.9264   54.2522 H   0  0  0  0  0  0  0  0  0  0  0  0
    8.2041   48.0109   55.4959 H   0  0  0  0  0  0  0  0  0  0  0  0
    3.4672   44.5880   52.4167 H   0  0  0  0  0  0  0  0  0  0  0  0
    1.0449   44.5603   51.8774 H   0  0  0  0  0  0  0  0  0  0  0  0
  1  2  2  0
  2  3  1  0
  2  4  1  0
  4  5  2  0
  5  6  1  0
  6  7  2  0
  7  8  1  0
  8  9  1  0
  9 10  2  0
 10 11  1  0
 11 12  1  0
 12 13  2  0
 13 14  1  0
 14 15  2  0
 15 16  1  0
 16 17  2  0
 11 18  2  0
 18 19  1  0
 19 20  2  0
 20 21  1  0
 21 22  2  0
 22 23  1  0
 23 24  2  0
  7 25  1  0
 25 26  2  0
 26  4  1  0
 24  9  1  0
 17 12  1  0
 23 18  1  0
  5 27  1  0
  6 28  1  0
  8 29  1  0
 13 30  1  0
 14 31  1  0
 15 32  1  0
 16 33  1  0
 17 34  1  0
 19 35  1  0
 20 36  1  0
 21 37  1  0
 22 38  1  0
 25 39  1  0
 26 40  1  0
M  CHG  1   3  -1
M  END
>  <meeko>  (459) 
{"is_sidechain": false}

>  <CID>  (459) 
Z57110395

>  <pose_index>  (459) 
6

>  <docking_score>  (459) 
-9.323

>  <rmsd_to_best_selected>  (459) 
1.3081930573199572

>  <MWT>  (459) 
340.3619999999998

>  <TPSA>  (459) 
77.94

>  <logP>  (459) 
3.403900000000001

>  <HBD>  (459) 
1

>  <HBA>  (459) 
5

>  <SMILES>  (459) 
[H]c1c([H])c([H])c(-c2nc(N([H])c3c([H])c([H])c(C(=O)[O-])c([H])c3[H])nc3c([H])c([H])c([H])c([H])c23)c([H])c1[H]

$$$$
Z57110395_pose7
     RDKit          3D

 40 43  0  0  0  0  0  0  0  0999 V2000
   -1.0360   43.2763   52.3629 O   0  0  0  0  0  0  0  0  0  0  0  0
   -0.7595   43.5355   53.5776 C   0  0  0  0  0  0  0  0  0  0  0  0
   -1.5062   43.2938   54.5764 O   0  0  0  0  0  1  0  0  0  0  0  0
    0.5803   44.1909   53.8557 C   0  0  0  0  0  0  0  0  0  0  0  0
    1.4141   44.6104   52.8119 C   0  0  0  0  0  0  0  0  0  0  0  0
    2.6537   45.2163   53.0685 C   0  0  0  0  0  0  0  0  0  0  0  0
    3.1019   45.4213   54.3768 C   0  0  0  0  0  0  0  0  0  0  0  0
    4.3252   46.0176   54.7039 N   0  0  0  0  0  0  0  0  0  0  0  0
    5.5342   46.1819   54.0381 C   0  0  0  0  0  0  0  0  0  0  0  0
    5.6067   45.5729   52.8474 N   0  0  0  0  0  0  0  0  0  0  0  0
    6.7590   45.6863   52.1493 C   0  0  0  0  0  0  0  0  0  0  0  0
    6.7450   44.9605   50.8699 C   0  0  0  0  0  0  0  0  0  0  0  0
    7.7046   43.9715   50.6015 C   0  0  0  0  0  0  0  0  0  0  0  0
    7.6985   43.2755   49.3905 C   0  0  0  0  0  0  0  0  0  0  0  0
    6.7376   43.5652   48.4245 C   0  0  0  0  0  0  0  0  0  0  0  0
    5.7876   44.5544   48.6659 C   0  0  0  0  0  0  0  0  0  0  0  0
    5.7923   45.2494   49.8771 C   0  0  0  0  0  0  0  0  0  0  0  0
    7.8570   46.4263   52.6048 C   0  0  0  0  0  0  0  0  0  0  0  0
    9.0833   46.6230   51.9126 C   0  0  0  0  0  0  0  0  0  0  0  0
   10.1060   47.3835   52.4731 C   0  0  0  0  0  0  0  0  0  0  0  0
    9.9174   47.9568   53.7228 C   0  0  0  0  0  0  0  0  0  0  0  0
    8.7084   47.7695   54.3960 C   0  0  0  0  0  0  0  0  0  0  0  0
    7.6722   47.0175   53.8558 C   0  0  0  0  0  0  0  0  0  0  0  0
    6.5409   46.8942   54.5539 N   0  0  0  0  0  0  0  0  0  0  0  0
    2.2638   45.0000   55.4215 C   0  0  0  0  0  0  0  0  0  0  0  0
    1.0254   44.3951   55.1680 C   0  0  0  0  0  0  0  0  0  0  0  0
    1.0914   44.4622   51.7708 H   0  0  0  0  0  0  0  0  0  0  0  0
    3.2838   45.5356   52.2253 H   0  0  0  0  0  0  0  0  0  0  0  0
    4.3872   46.4377   55.6188 H   0  0  0  0  0  0  0  0  0  0  0  0
    8.4720   43.7415   51.3554 H   0  0  0  0  0  0  0  0  0  0  0  0
    8.4530   42.4982   49.1994 H   0  0  0  0  0  0  0  0  0  0  0  0
    6.7292   43.0136   47.4729 H   0  0  0  0  0  0  0  0  0  0  0  0
    5.0323   44.7886   47.9013 H   0  0  0  0  0  0  0  0  0  0  0  0
    5.0412   46.0327   50.0567 H   0  0  0  0  0  0  0  0  0  0  0  0
    9.2259   46.1684   50.9211 H   0  0  0  0  0  0  0  0  0  0  0  0
   11.0526   47.5283   51.9317 H   0  0  0  0  0  0  0  0  0  0  0  0
   10.7174   48.5565   54.1813 H   0  0  0  0  0  0  0  0  0  0  0  0
    8.5720   48.2317   55.3848 H   0  0  0  0  0  0  0  0  0  0  0  0
    2.5866   45.1480   56.4626 H   0  0  0  0  0  0  0  0  0  0  0  0
    0.3945   44.0765   56.0109 H   0  0  0  0  0  0  0  0  0  0  0  0
  1  2  2  0
  2  3  1  0
  2  4  1  0
  4  5  2  0
  5  6  1  0
  6  7  2  0
  7  8  1  0
  8  9  1  0
  9 10  2  0
 10 11  1  0
 11 12  1  0
 12 13  2  0
 13 14  1  0
 14 15  2  0
 15 16  1  0
 16 17  2  0
 11 18  2  0
 18 19  1  0
 19 20  2  0
 20 21  1  0
 21 22  2  0
 22 23  1  0
 23 24  2  0
  7 25  1  0
 25 26  2  0
 26  4  1  0
 24  9  1  0
 17 12  1  0
 23 18  1  0
  5 27  1  0
  6 28  1  0
  8 29  1  0
 13 30  1  0
 14 31  1  0
 15 32  1  0
 16 33  1  0
 17 34  1  0
 19 35  1  0
 20 36  1  0
 21 37  1  0
 22 38  1  0
 25 39  1  0
 26 40  1  0
M  CHG  1   3  -1
M  END
>  <meeko>  (460) 
{"is_sidechain": false}

>  <CID>  (460) 
Z57110395

>  <pose_index>  (460) 
7

>  <docking_score>  (460) 
-9.283

>  <rmsd_to_best_selected>  (460) 
1.2319351406534558

>  <MWT>  (460) 
340.3619999999998

>  <TPSA>  (460) 
77.94

>  <logP>  (460) 
3.403900000000001

>  <HBD>  (460) 
1

>  <HBA>  (460) 
5

>  <SMILES>  (460) 
[H]c1c([H])c([H])c(-c2nc(N([H])c3c([H])c([H])c(C(=O)[O-])c([H])c3[H])nc3c([H])c([H])c([H])c([H])c23)c([H])c1[H]

$$$$
Z57110395_pose10
     RDKit          3D

 40 43  0  0  0  0  0  0  0  0999 V2000
   -2.0576   45.0249   54.1644 O   0  0  0  0  0  0  0  0  0  0  0  0
   -1.1794   45.7129   54.7767 C   0  0  0  0  0  0  0  0  0  0  0  0
   -1.4115   46.7032   55.5384 O   0  0  0  0  0  1  0  0  0  0  0  0
    0.2711   45.3149   54.5783 C   0  0  0  0  0  0  0  0  0  0  0  0
    0.6980   44.6886   53.4000 C   0  0  0  0  0  0  0  0  0  0  0  0
    2.0392   44.3200   53.2167 C   0  0  0  0  0  0  0  0  0  0  0  0
    2.9988   44.5639   54.2027 C   0  0  0  0  0  0  0  0  0  0  0  0
    4.3512   44.2230   54.0854 N   0  0  0  0  0  0  0  0  0  0  0  0
    5.4799   44.8760   53.6037 C   0  0  0  0  0  0  0  0  0  0  0  0
    5.8246   44.5531   52.3520 N   0  0  0  0  0  0  0  0  0  0  0  0
    6.9178   45.1470   51.8238 C   0  0  0  0  0  0  0  0  0  0  0  0
    7.2252   44.7035   50.4554 C   0  0  0  0  0  0  0  0  0  0  0  0
    8.5097   44.2382   50.1285 C   0  0  0  0  0  0  0  0  0  0  0  0
    8.8115   43.8129   48.8327 C   0  0  0  0  0  0  0  0  0  0  0  0
    7.8349   43.8572   47.8407 C   0  0  0  0  0  0  0  0  0  0  0  0
    6.5599   44.3311   48.1405 C   0  0  0  0  0  0  0  0  0  0  0  0
    6.2578   44.7551   49.4366 C   0  0  0  0  0  0  0  0  0  0  0  0
    7.6812   46.0947   52.5185 C   0  0  0  0  0  0  0  0  0  0  0  0
    8.8165   46.7891   52.0180 C   0  0  0  0  0  0  0  0  0  0  0  0
    9.4949   47.7108   52.8099 C   0  0  0  0  0  0  0  0  0  0  0  0
    9.0485   47.9550   54.1010 C   0  0  0  0  0  0  0  0  0  0  0  0
    7.9263   47.2783   54.5860 C   0  0  0  0  0  0  0  0  0  0  0  0
    7.2322   46.3542   53.8140 C   0  0  0  0  0  0  0  0  0  0  0  0
    6.1621   45.7583   54.3423 N   0  0  0  0  0  0  0  0  0  0  0  0
    2.5682   45.1931   55.3829 C   0  0  0  0  0  0  0  0  0  0  0  0
    1.2300   45.5624   55.5684 C   0  0  0  0  0  0  0  0  0  0  0  0
   -0.0322   44.4819   52.6037 H   0  0  0  0  0  0  0  0  0  0  0  0
    2.3410   43.8298   52.2793 H   0  0  0  0  0  0  0  0  0  0  0  0
    4.6103   43.3058   54.4157 H   0  0  0  0  0  0  0  0  0  0  0  0
    9.2891   44.2084   50.9042 H   0  0  0  0  0  0  0  0  0  0  0  0
    9.8200   43.4431   48.5959 H   0  0  0  0  0  0  0  0  0  0  0  0
    8.0705   43.5182   46.8210 H   0  0  0  0  0  0  0  0  0  0  0  0
    5.7901   44.3714   47.3557 H   0  0  0  0  0  0  0  0  0  0  0  0
    5.2503   45.1340   49.6631 H   0  0  0  0  0  0  0  0  0  0  0  0
    9.1630   46.5953   50.9921 H   0  0  0  0  0  0  0  0  0  0  0  0
   10.3755   48.2400   52.4167 H   0  0  0  0  0  0  0  0  0  0  0  0
    9.5760   48.6784   54.7401 H   0  0  0  0  0  0  0  0  0  0  0  0
    7.5816   47.4833   55.6103 H   0  0  0  0  0  0  0  0  0  0  0  0
    3.2985   45.4003   56.1790 H   0  0  0  0  0  0  0  0  0  0  0  0
    0.9279   46.0537   56.5051 H   0  0  0  0  0  0  0  0  0  0  0  0
  1  2  2  0
  2  3  1  0
  2  4  1  0
  4  5  2  0
  5  6  1  0
  6  7  2  0
  7  8  1  0
  8  9  1  0
  9 10  2  0
 10 11  1  0
 11 12  1  0
 12 13  2  0
 13 14  1  0
 14 15  2  0
 15 16  1  0
 16 17  2  0
 11 18  2  0
 18 19  1  0
 19 20  2  0
 20 21  1  0
 21 22  2  0
 22 23  1  0
 23 24  2  0
  7 25  1  0
 25 26  2  0
 26  4  1  0
 24  9  1  0
 17 12  1  0
 23 18  1  0
  5 27  1  0
  6 28  1  0
  8 29  1  0
 13 30  1  0
 14 31  1  0
 15 32  1  0
 16 33  1  0
 17 34  1  0
 19 35  1  0
 20 36  1  0
 21 37  1  0
 22 38  1  0
 25 39  1  0
 26 40  1  0
M  CHG  1   3  -1
M  END
>  <meeko>  (461) 
{"is_sidechain": false}

>  <CID>  (461) 
Z57110395

>  <pose_index>  (461) 
10

>  <docking_score>  (461) 
-8.983

>  <rmsd_to_best_selected>  (461) 
1.7934060982056708

>  <MWT>  (461) 
340.3619999999998

>  <TPSA>  (461) 
77.94

>  <logP>  (461) 
3.403900000000001

>  <HBD>  (461) 
1

>  <HBA>  (461) 
5

>  <SMILES>  (461) 
[H]c1c([H])c([H])c(-c2nc(N([H])c3c([H])c([H])c(C(=O)[O-])c([H])c3[H])nc3c([H])c([H])c([H])c([H])c23)c([H])c1[H]

$$$$
Z57346758_pose3
     RDKit          3D

 41 43  0  0  0  0  0  0  0  0999 V2000
   11.6162   49.3867   54.1501 C   0  0  0  0  0  0  0  0  0  0  0  0
   11.6952   48.0643   53.6343 O   0  0  0  0  0  0  0  0  0  0  0  0
   10.6040   47.2641   53.8271 C   0  0  0  0  0  0  0  0  0  0  0  0
    9.8742   47.1354   55.0057 C   0  0  0  0  0  0  0  0  0  0  0  0
    8.7686   46.2734   55.0653 C   0  0  0  0  0  0  0  0  0  0  0  0
    8.3686   45.5201   53.9581 C   0  0  0  0  0  0  0  0  0  0  0  0
    7.2701   44.6559   53.9542 N   0  0  0  0  0  0  0  0  0  0  0  0
    6.4168   44.1729   52.9637 C   0  0  0  0  0  0  0  0  0  0  0  0
    5.1776   44.6820   53.0001 N   0  0  0  0  0  0  0  0  0  0  0  0
    4.2888   44.2680   52.0794 C   0  0  0  0  0  0  0  0  0  0  0  0
    2.9809   44.7981   52.1077 N   0  0  0  0  0  0  0  0  0  0  0  0
    2.3316   44.8662   53.4220 C   0  0  0  0  0  0  0  0  0  0  0  0
    1.4692   43.6256   53.6789 C   0  0  0  0  0  0  0  0  0  0  0  0
    1.4677   43.3227   55.0774 O   0  0  0  0  0  0  0  0  0  0  0  0
    4.6368   43.3540   51.0726 C   0  0  0  0  0  0  0  0  0  0  0  0
    3.7757   42.9046   50.0371 C   0  0  0  0  0  0  0  0  0  0  0  0
    4.2176   41.9848   49.0888 C   0  0  0  0  0  0  0  0  0  0  0  0
    5.5177   41.5053   49.1618 C   0  0  0  0  0  0  0  0  0  0  0  0
    6.3665   41.9581   50.1761 C   0  0  0  0  0  0  0  0  0  0  0  0
    5.9486   42.8780   51.1306 C   0  0  0  0  0  0  0  0  0  0  0  0
    6.8189   43.2717   52.0622 N   0  0  0  0  0  0  0  0  0  0  0  0
    9.1102   45.6661   52.7767 C   0  0  0  0  0  0  0  0  0  0  0  0
   10.2143   46.5254   52.7118 C   0  0  0  0  0  0  0  0  0  0  0  0
   12.1141   50.0809   53.4571 H   0  0  0  0  0  0  0  0  0  0  0  0
   10.5604   49.6744   54.2617 H   0  0  0  0  0  0  0  0  0  0  0  0
   12.1131   49.4282   55.1306 H   0  0  0  0  0  0  0  0  0  0  0  0
   10.1660   47.7129   55.8953 H   0  0  0  0  0  0  0  0  0  0  0  0
    8.2036   46.1886   56.0053 H   0  0  0  0  0  0  0  0  0  0  0  0
    6.9401   44.3314   54.8494 H   0  0  0  0  0  0  0  0  0  0  0  0
    2.3896   44.2447   51.4864 H   0  0  0  0  0  0  0  0  0  0  0  0
    3.1051   44.9332   54.2013 H   0  0  0  0  0  0  0  0  0  0  0  0
    1.6813   45.7531   53.4438 H   0  0  0  0  0  0  0  0  0  0  0  0
    0.4392   43.8205   53.3456 H   0  0  0  0  0  0  0  0  0  0  0  0
    1.8818   42.7722   53.1210 H   0  0  0  0  0  0  0  0  0  0  0  0
    2.3378   42.9334   55.2775 H   0  0  0  0  0  0  0  0  0  0  0  0
    2.7460   43.2878   49.9829 H   0  0  0  0  0  0  0  0  0  0  0  0
    3.5430   41.6421   48.2904 H   0  0  0  0  0  0  0  0  0  0  0  0
    5.8786   40.7724   48.4251 H   0  0  0  0  0  0  0  0  0  0  0  0
    7.3966   41.5747   50.2201 H   0  0  0  0  0  0  0  0  0  0  0  0
    8.8190   45.0943   51.8833 H   0  0  0  0  0  0  0  0  0  0  0  0
   10.7788   46.6179   51.7722 H   0  0  0  0  0  0  0  0  0  0  0  0
  1  2  1  0
  2  3  1  0
  3  4  2  0
  4  5  1  0
  5  6  2  0
  6  7  1  0
  7  8  1  0
  8  9  2  0
  9 10  1  0
 10 11  1  0
 11 12  1  0
 12 13  1  0
 13 14  1  0
 10 15  2  0
 15 16  1  0
 16 17  2  0
 17 18  1  0
 18 19  2  0
 19 20  1  0
 20 21  2  0
  6 22  1  0
 22 23  2  0
 23  3  1  0
 21  8  1  0
 20 15  1  0
  1 24  1  0
  1 25  1  0
  1 26  1  0
  4 27  1  0
  5 28  1  0
  7 29  1  0
 11 30  1  0
 12 31  1  0
 12 32  1  0
 13 33  1  0
 13 34  1  0
 14 35  1  0
 16 36  1  0
 17 37  1  0
 18 38  1  0
 19 39  1  0
 22 40  1  0
 23 41  1  0
M  END
>  <meeko>  (462) 
{"is_sidechain": false}

>  <CID>  (462) 
Z57346758

>  <pose_index>  (462) 
3

>  <docking_score>  (462) 
-8.199

>  <rmsd_to_best_selected>  (462) 
1.9777018003362237

>  <MWT>  (462) 
310.3569999999997

>  <TPSA>  (462) 
79.3

>  <logP>  (462) 
2.786200000000001

>  <HBD>  (462) 
3

>  <HBA>  (462) 
6

>  <SMILES>  (462) 
[H]OC([H])([H])C([H])([H])N([H])c1nc(N([H])c2c([H])c([H])c(OC([H])([H])[H])c([H])c2[H])nc2c([H])c([H])c([H])c([H])c12

$$$$
Z57346758_pose2
     RDKit          3D

 41 43  0  0  0  0  0  0  0  0999 V2000
   11.7827   48.2038   55.5846 C   0  0  0  0  0  0  0  0  0  0  0  0
   10.4910   47.6897   55.8842 O   0  0  0  0  0  0  0  0  0  0  0  0
    9.6875   47.3880   54.8205 C   0  0  0  0  0  0  0  0  0  0  0  0
    8.6164   48.1462   54.3547 C   0  0  0  0  0  0  0  0  0  0  0  0
    7.8729   47.7179   53.2450 C   0  0  0  0  0  0  0  0  0  0  0  0
    8.1749   46.5271   52.5779 C   0  0  0  0  0  0  0  0  0  0  0  0
    7.4796   46.0554   51.4618 N   0  0  0  0  0  0  0  0  0  0  0  0
    6.5456   45.0429   51.2552 C   0  0  0  0  0  0  0  0  0  0  0  0
    5.4268   45.1598   51.9835 N   0  0  0  0  0  0  0  0  0  0  0  0
    4.4733   44.2214   51.8458 C   0  0  0  0  0  0  0  0  0  0  0  0
    3.2892   44.3351   52.6066 N   0  0  0  0  0  0  0  0  0  0  0  0
    3.4546   44.4171   54.0624 C   0  0  0  0  0  0  0  0  0  0  0  0
    2.3095   43.7056   54.7911 C   0  0  0  0  0  0  0  0  0  0  0  0
    1.3926   43.1656   53.8334 O   0  0  0  0  0  0  0  0  0  0  0  0
    4.6069   43.1564   50.9407 C   0  0  0  0  0  0  0  0  0  0  0  0
    3.6301   42.1555   50.6998 C   0  0  0  0  0  0  0  0  0  0  0  0
    3.8648   41.1307   49.7855 C   0  0  0  0  0  0  0  0  0  0  0  0
    5.0726   41.0955   49.1030 C   0  0  0  0  0  0  0  0  0  0  0  0
    6.0280   42.0881   49.3345 C   0  0  0  0  0  0  0  0  0  0  0  0
    5.8136   43.1215   50.2398 C   0  0  0  0  0  0  0  0  0  0  0  0
    6.7680   44.0408   50.3991 N   0  0  0  0  0  0  0  0  0  0  0  0
    9.2615   45.7779   53.0563 C   0  0  0  0  0  0  0  0  0  0  0  0
   10.0067   46.2019   54.1622 C   0  0  0  0  0  0  0  0  0  0  0  0
   12.5052   47.3756   55.5380 H   0  0  0  0  0  0  0  0  0  0  0  0
   11.7553   48.7215   54.6144 H   0  0  0  0  0  0  0  0  0  0  0  0
   12.0867   48.9118   56.3696 H   0  0  0  0  0  0  0  0  0  0  0  0
    8.3516   49.0867   54.8600 H   0  0  0  0  0  0  0  0  0  0  0  0
    7.0326   48.3335   52.8914 H   0  0  0  0  0  0  0  0  0  0  0  0
    7.7168   46.4615   50.5697 H   0  0  0  0  0  0  0  0  0  0  0  0
    2.6865   43.5374   52.3968 H   0  0  0  0  0  0  0  0  0  0  0  0
    4.4072   43.9438   54.3426 H   0  0  0  0  0  0  0  0  0  0  0  0
    3.4479   45.4776   54.3546 H   0  0  0  0  0  0  0  0  0  0  0  0
    2.7178   42.8906   55.4068 H   0  0  0  0  0  0  0  0  0  0  0  0
    1.7831   44.4255   55.4350 H   0  0  0  0  0  0  0  0  0  0  0  0
    1.0735   43.9159   53.3018 H   0  0  0  0  0  0  0  0  0  0  0  0
    2.6740   42.1893   51.2426 H   0  0  0  0  0  0  0  0  0  0  0  0
    3.1018   40.3587   49.6068 H   0  0  0  0  0  0  0  0  0  0  0  0
    5.2769   40.2895   48.3828 H   0  0  0  0  0  0  0  0  0  0  0  0
    6.9794   42.0510   48.7837 H   0  0  0  0  0  0  0  0  0  0  0  0
    9.5325   44.8388   52.5517 H   0  0  0  0  0  0  0  0  0  0  0  0
   10.8523   45.5933   54.5151 H   0  0  0  0  0  0  0  0  0  0  0  0
  1  2  1  0
  2  3  1  0
  3  4  2  0
  4  5  1  0
  5  6  2  0
  6  7  1  0
  7  8  1  0
  8  9  2  0
  9 10  1  0
 10 11  1  0
 11 12  1  0
 12 13  1  0
 13 14  1  0
 10 15  2  0
 15 16  1  0
 16 17  2  0
 17 18  1  0
 18 19  2  0
 19 20  1  0
 20 21  2  0
  6 22  1  0
 22 23  2  0
 23  3  1  0
 21  8  1  0
 20 15  1  0
  1 24  1  0
  1 25  1  0
  1 26  1  0
  4 27  1  0
  5 28  1  0
  7 29  1  0
 11 30  1  0
 12 31  1  0
 12 32  1  0
 13 33  1  0
 13 34  1  0
 14 35  1  0
 16 36  1  0
 17 37  1  0
 18 38  1  0
 19 39  1  0
 22 40  1  0
 23 41  1  0
M  END
>  <meeko>  (463) 
{"is_sidechain": false}

>  <CID>  (463) 
Z57346758

>  <pose_index>  (463) 
2

>  <docking_score>  (463) 
-8.611

>  <rmsd_to_best_selected>  (463) 
0.0

>  <MWT>  (463) 
310.3569999999997

>  <TPSA>  (463) 
79.3

>  <logP>  (463) 
2.786200000000001

>  <HBD>  (463) 
3

>  <HBA>  (463) 
6

>  <SMILES>  (463) 
[H]OC([H])([H])C([H])([H])N([H])c1nc(N([H])c2c([H])c([H])c(OC([H])([H])[H])c([H])c2[H])nc2c([H])c([H])c([H])c([H])c12

$$$$
Z57346758_pose4
     RDKit          3D

 41 43  0  0  0  0  0  0  0  0999 V2000
   12.4063   48.0763   54.0936 C   0  0  0  0  0  0  0  0  0  0  0  0
   11.1322   48.6506   53.8311 O   0  0  0  0  0  0  0  0  0  0  0  0
   10.0550   47.8107   53.8889 C   0  0  0  0  0  0  0  0  0  0  0  0
    8.7377   48.1768   54.1501 C   0  0  0  0  0  0  0  0  0  0  0  0
    7.7249   47.2073   54.1790 C   0  0  0  0  0  0  0  0  0  0  0  0
    8.0001   45.8560   53.9525 C   0  0  0  0  0  0  0  0  0  0  0  0
    7.0319   44.8469   53.9556 N   0  0  0  0  0  0  0  0  0  0  0  0
    6.2876   44.2106   52.9656 C   0  0  0  0  0  0  0  0  0  0  0  0
    5.1190   43.7064   53.3835 N   0  0  0  0  0  0  0  0  0  0  0  0
    4.3387   43.0735   52.4894 C   0  0  0  0  0  0  0  0  0  0  0  0
    3.1040   42.5405   52.9185 N   0  0  0  0  0  0  0  0  0  0  0  0
    1.9763   43.4775   52.9874 C   0  0  0  0  0  0  0  0  0  0  0  0
    1.7627   43.9835   54.4188 C   0  0  0  0  0  0  0  0  0  0  0  0
    2.6592   45.0682   54.6827 O   0  0  0  0  0  0  0  0  0  0  0  0
    4.7015   42.9626   51.1369 C   0  0  0  0  0  0  0  0  0  0  0  0
    3.9148   42.3556   50.1235 C   0  0  0  0  0  0  0  0  0  0  0  0
    4.3710   42.2871   48.8086 C   0  0  0  0  0  0  0  0  0  0  0  0
    5.6121   42.8223   48.4935 C   0  0  0  0  0  0  0  0  0  0  0  0
    6.3791   43.4284   49.4919 C   0  0  0  0  0  0  0  0  0  0  0  0
    5.9414   43.5119   50.8090 C   0  0  0  0  0  0  0  0  0  0  0  0
    6.7247   44.1161   51.7049 N   0  0  0  0  0  0  0  0  0  0  0  0
    9.3315   45.5040   53.6846 C   0  0  0  0  0  0  0  0  0  0  0  0
   10.3455   46.4688   53.6542 C   0  0  0  0  0  0  0  0  0  0  0  0
   12.9406   48.6917   54.8325 H   0  0  0  0  0  0  0  0  0  0  0  0
   12.2751   47.0587   54.4901 H   0  0  0  0  0  0  0  0  0  0  0  0
   12.9887   48.0344   53.1614 H   0  0  0  0  0  0  0  0  0  0  0  0
    8.4898   49.2325   54.3348 H   0  0  0  0  0  0  0  0  0  0  0  0
    6.6898   47.5177   54.3847 H   0  0  0  0  0  0  0  0  0  0  0  0
    6.7186   44.5168   54.8561 H   0  0  0  0  0  0  0  0  0  0  0  0
    3.2298   42.1222   53.8420 H   0  0  0  0  0  0  0  0  0  0  0  0
    2.1820   44.3355   52.3305 H   0  0  0  0  0  0  0  0  0  0  0  0
    1.0659   42.9513   52.6644 H   0  0  0  0  0  0  0  0  0  0  0  0
    0.7250   44.3297   54.5339 H   0  0  0  0  0  0  0  0  0  0  0  0
    1.9586   43.1662   55.1286 H   0  0  0  0  0  0  0  0  0  0  0  0
    2.1082   45.8633   54.7913 H   0  0  0  0  0  0  0  0  0  0  0  0
    2.9317   41.9336   50.3794 H   0  0  0  0  0  0  0  0  0  0  0  0
    3.7547   41.8144   48.0297 H   0  0  0  0  0  0  0  0  0  0  0  0
    5.9904   42.7695   47.4619 H   0  0  0  0  0  0  0  0  0  0  0  0
    7.3592   43.8524   49.2278 H   0  0  0  0  0  0  0  0  0  0  0  0
    9.5834   44.4501   53.4950 H   0  0  0  0  0  0  0  0  0  0  0  0
   11.3812   46.1643   53.4429 H   0  0  0  0  0  0  0  0  0  0  0  0
  1  2  1  0
  2  3  1  0
  3  4  2  0
  4  5  1  0
  5  6  2  0
  6  7  1  0
  7  8  1  0
  8  9  2  0
  9 10  1  0
 10 11  1  0
 11 12  1  0
 12 13  1  0
 13 14  1  0
 10 15  2  0
 15 16  1  0
 16 17  2  0
 17 18  1  0
 18 19  2  0
 19 20  1  0
 20 21  2  0
  6 22  1  0
 22 23  2  0
 23  3  1  0
 21  8  1  0
 20 15  1  0
  1 24  1  0
  1 25  1  0
  1 26  1  0
  4 27  1  0
  5 28  1  0
  7 29  1  0
 11 30  1  0
 12 31  1  0
 12 32  1  0
 13 33  1  0
 13 34  1  0
 14 35  1  0
 16 36  1  0
 17 37  1  0
 18 38  1  0
 19 39  1  0
 22 40  1  0
 23 41  1  0
M  END
>  <meeko>  (464) 
{"is_sidechain": false}

>  <CID>  (464) 
Z57346758

>  <pose_index>  (464) 
4

>  <docking_score>  (464) 
-7.937

>  <rmsd_to_best_selected>  (464) 
1.8680128773052607

>  <MWT>  (464) 
310.3569999999997

>  <TPSA>  (464) 
79.3

>  <logP>  (464) 
2.786200000000001

>  <HBD>  (464) 
3

>  <HBA>  (464) 
6

>  <SMILES>  (464) 
[H]OC([H])([H])C([H])([H])N([H])c1nc(N([H])c2c([H])c([H])c(OC([H])([H])[H])c([H])c2[H])nc2c([H])c([H])c([H])c([H])c12

$$$$
Z57346758_pose5
     RDKit          3D

 41 43  0  0  0  0  0  0  0  0999 V2000
   11.5267   48.9058   53.3303 C   0  0  0  0  0  0  0  0  0  0  0  0
   10.9282   48.5530   54.5707 O   0  0  0  0  0  0  0  0  0  0  0  0
   10.0558   47.5010   54.5550 C   0  0  0  0  0  0  0  0  0  0  0  0
    9.3232   47.0220   55.6384 C   0  0  0  0  0  0  0  0  0  0  0  0
    8.4579   45.9296   55.4814 C   0  0  0  0  0  0  0  0  0  0  0  0
    8.3055   45.2883   54.2484 C   0  0  0  0  0  0  0  0  0  0  0  0
    7.4506   44.2044   54.0291 N   0  0  0  0  0  0  0  0  0  0  0  0
    6.6003   43.8328   52.9901 C   0  0  0  0  0  0  0  0  0  0  0  0
    5.3253   44.2159   53.1506 N   0  0  0  0  0  0  0  0  0  0  0  0
    4.4368   43.8953   52.1938 C   0  0  0  0  0  0  0  0  0  0  0  0
    3.0914   44.2948   52.3511 N   0  0  0  0  0  0  0  0  0  0  0  0
    2.7622   45.0020   53.5940 C   0  0  0  0  0  0  0  0  0  0  0  0
    1.5481   44.3700   54.2859 C   0  0  0  0  0  0  0  0  0  0  0  0
    0.4732   44.2434   53.3482 O   0  0  0  0  0  0  0  0  0  0  0  0
    4.8171   43.2102   51.0286 C   0  0  0  0  0  0  0  0  0  0  0  0
    3.9526   42.8788   49.9520 C   0  0  0  0  0  0  0  0  0  0  0  0
    4.4289   42.1850   48.8414 C   0  0  0  0  0  0  0  0  0  0  0  0
    5.7664   41.8173   48.7918 C   0  0  0  0  0  0  0  0  0  0  0  0
    6.6154   42.1543   49.8494 C   0  0  0  0  0  0  0  0  0  0  0  0
    6.1637   42.8496   50.9660 C   0  0  0  0  0  0  0  0  0  0  0  0
    7.0368   43.1467   51.9304 N   0  0  0  0  0  0  0  0  0  0  0  0
    9.0465   45.7865   53.1667 C   0  0  0  0  0  0  0  0  0  0  0  0
    9.9109   46.8778   53.3181 C   0  0  0  0  0  0  0  0  0  0  0  0
   11.2338   49.9311   53.0603 H   0  0  0  0  0  0  0  0  0  0  0  0
   12.6214   48.8494   53.4222 H   0  0  0  0  0  0  0  0  0  0  0  0
   11.1880   48.2098   52.5487 H   0  0  0  0  0  0  0  0  0  0  0  0
    9.4238   47.5032   56.6224 H   0  0  0  0  0  0  0  0  0  0  0  0
    7.8857   45.5687   56.3488 H   0  0  0  0  0  0  0  0  0  0  0  0
    7.3386   43.5499   54.7865 H   0  0  0  0  0  0  0  0  0  0  0  0
    2.4936   43.4693   52.2834 H   0  0  0  0  0  0  0  0  0  0  0  0
    3.6265   44.9558   54.2729 H   0  0  0  0  0  0  0  0  0  0  0  0
    2.5186   46.0459   53.3472 H   0  0  0  0  0  0  0  0  0  0  0  0
    1.8208   43.3748   54.6669 H   0  0  0  0  0  0  0  0  0  0  0  0
    1.2301   45.0099   55.1222 H   0  0  0  0  0  0  0  0  0  0  0  0
    0.7227   43.5284   52.7359 H   0  0  0  0  0  0  0  0  0  0  0  0
    2.8937   43.1735   49.9953 H   0  0  0  0  0  0  0  0  0  0  0  0
    3.7519   41.9312   48.0124 H   0  0  0  0  0  0  0  0  0  0  0  0
    6.1560   41.2637   47.9248 H   0  0  0  0  0  0  0  0  0  0  0  0
    7.6741   41.8603   49.7972 H   0  0  0  0  0  0  0  0  0  0  0  0
    8.9465   45.3107   52.1799 H   0  0  0  0  0  0  0  0  0  0  0  0
   10.4807   47.2460   52.4522 H   0  0  0  0  0  0  0  0  0  0  0  0
  1  2  1  0
  2  3  1  0
  3  4  2  0
  4  5  1  0
  5  6  2  0
  6  7  1  0
  7  8  1  0
  8  9  2  0
  9 10  1  0
 10 11  1  0
 11 12  1  0
 12 13  1  0
 13 14  1  0
 10 15  2  0
 15 16  1  0
 16 17  2  0
 17 18  1  0
 18 19  2  0
 19 20  1  0
 20 21  2  0
  6 22  1  0
 22 23  2  0
 23  3  1  0
 21  8  1  0
 20 15  1  0
  1 24  1  0
  1 25  1  0
  1 26  1  0
  4 27  1  0
  5 28  1  0
  7 29  1  0
 11 30  1  0
 12 31  1  0
 12 32  1  0
 13 33  1  0
 13 34  1  0
 14 35  1  0
 16 36  1  0
 17 37  1  0
 18 38  1  0
 19 39  1  0
 22 40  1  0
 23 41  1  0
M  END
>  <meeko>  (465) 
{"is_sidechain": false}

>  <CID>  (465) 
Z57346758

>  <pose_index>  (465) 
5

>  <docking_score>  (465) 
-7.922

>  <rmsd_to_best_selected>  (465) 
1.9777514845085897

>  <MWT>  (465) 
310.3569999999997

>  <TPSA>  (465) 
79.3

>  <logP>  (465) 
2.786200000000001

>  <HBD>  (465) 
3

>  <HBA>  (465) 
6

>  <SMILES>  (465) 
[H]OC([H])([H])C([H])([H])N([H])c1nc(N([H])c2c([H])c([H])c(OC([H])([H])[H])c([H])c2[H])nc2c([H])c([H])c([H])c([H])c12

$$$$
Z57346758_pose6
     RDKit          3D

 41 43  0  0  0  0  0  0  0  0999 V2000
   11.1402   49.1393   55.0823 C   0  0  0  0  0  0  0  0  0  0  0  0
    9.8310   49.1497   54.5288 O   0  0  0  0  0  0  0  0  0  0  0  0
    9.3134   47.9421   54.1502 C   0  0  0  0  0  0  0  0  0  0  0  0
    7.9951   47.5233   54.3111 C   0  0  0  0  0  0  0  0  0  0  0  0
    7.5972   46.2514   53.8740 C   0  0  0  0  0  0  0  0  0  0  0  0
    8.4988   45.3687   53.2742 C   0  0  0  0  0  0  0  0  0  0  0  0
    8.1583   44.0954   52.8084 N   0  0  0  0  0  0  0  0  0  0  0  0
    7.0082   43.5405   52.2527 C   0  0  0  0  0  0  0  0  0  0  0  0
    5.9327   43.5721   53.0509 N   0  0  0  0  0  0  0  0  0  0  0  0
    4.7788   43.0539   52.5934 C   0  0  0  0  0  0  0  0  0  0  0  0
    3.6391   43.0835   53.4254 N   0  0  0  0  0  0  0  0  0  0  0  0
    3.3957   44.3338   54.1534 C   0  0  0  0  0  0  0  0  0  0  0  0
    2.4237   45.2407   53.3886 C   0  0  0  0  0  0  0  0  0  0  0  0
    2.9208   46.5832   53.3855 O   0  0  0  0  0  0  0  0  0  0  0  0
    4.6694   42.5211   51.2985 C   0  0  0  0  0  0  0  0  0  0  0  0
    3.4814   42.0010   50.7222 C   0  0  0  0  0  0  0  0  0  0  0  0
    3.4809   41.4833   49.4282 C   0  0  0  0  0  0  0  0  0  0  0  0
    4.6606   41.4798   48.6984 C   0  0  0  0  0  0  0  0  0  0  0  0
    5.8270   42.0012   49.2655 C   0  0  0  0  0  0  0  0  0  0  0  0
    5.8497   42.5263   50.5527 C   0  0  0  0  0  0  0  0  0  0  0  0
    6.9978   43.0178   51.0223 N   0  0  0  0  0  0  0  0  0  0  0  0
    9.8214   45.8084   53.1135 C   0  0  0  0  0  0  0  0  0  0  0  0
   10.2241   47.0773   53.5477 C   0  0  0  0  0  0  0  0  0  0  0  0
   11.4992   50.1731   55.1940 H   0  0  0  0  0  0  0  0  0  0  0  0
   11.1180   48.6504   56.0673 H   0  0  0  0  0  0  0  0  0  0  0  0
   11.8166   48.5866   54.4137 H   0  0  0  0  0  0  0  0  0  0  0  0
    7.2619   48.1936   54.7835 H   0  0  0  0  0  0  0  0  0  0  0  0
    6.5502   45.9414   54.0067 H   0  0  0  0  0  0  0  0  0  0  0  0
    8.8385   43.3642   52.9388 H   0  0  0  0  0  0  0  0  0  0  0  0
    3.7092   42.3244   54.1048 H   0  0  0  0  0  0  0  0  0  0  0  0
    2.9666   44.0977   55.1384 H   0  0  0  0  0  0  0  0  0  0  0  0
    4.3529   44.8642   54.2645 H   0  0  0  0  0  0  0  0  0  0  0  0
    2.3279   44.8834   52.3527 H   0  0  0  0  0  0  0  0  0  0  0  0
    1.4393   45.2168   53.8789 H   0  0  0  0  0  0  0  0  0  0  0  0
    2.1424   47.1663   53.4220 H   0  0  0  0  0  0  0  0  0  0  0  0
    2.5483   42.0066   51.3046 H   0  0  0  0  0  0  0  0  0  0  0  0
    2.5551   41.0817   48.9904 H   0  0  0  0  0  0  0  0  0  0  0  0
    4.6782   41.0687   47.6783 H   0  0  0  0  0  0  0  0  0  0  0  0
    6.7553   41.9960   48.6753 H   0  0  0  0  0  0  0  0  0  0  0  0
   10.5565   45.1432   52.6370 H   0  0  0  0  0  0  0  0  0  0  0  0
   11.2687   47.3939   53.4118 H   0  0  0  0  0  0  0  0  0  0  0  0
  1  2  1  0
  2  3  1  0
  3  4  2  0
  4  5  1  0
  5  6  2  0
  6  7  1  0
  7  8  1  0
  8  9  2  0
  9 10  1  0
 10 11  1  0
 11 12  1  0
 12 13  1  0
 13 14  1  0
 10 15  2  0
 15 16  1  0
 16 17  2  0
 17 18  1  0
 18 19  2  0
 19 20  1  0
 20 21  2  0
  6 22  1  0
 22 23  2  0
 23  3  1  0
 21  8  1  0
 20 15  1  0
  1 24  1  0
  1 25  1  0
  1 26  1  0
  4 27  1  0
  5 28  1  0
  7 29  1  0
 11 30  1  0
 12 31  1  0
 12 32  1  0
 13 33  1  0
 13 34  1  0
 14 35  1  0
 16 36  1  0
 17 37  1  0
 18 38  1  0
 19 39  1  0
 22 40  1  0
 23 41  1  0
M  END
>  <meeko>  (466) 
{"is_sidechain": false}

>  <CID>  (466) 
Z57346758

>  <pose_index>  (466) 
6

>  <docking_score>  (466) 
-7.842

>  <rmsd_to_best_selected>  (466) 
1.7499713235716718

>  <MWT>  (466) 
310.3569999999997

>  <TPSA>  (466) 
79.3

>  <logP>  (466) 
2.786200000000001

>  <HBD>  (466) 
3

>  <HBA>  (466) 
6

>  <SMILES>  (466) 
[H]OC([H])([H])C([H])([H])N([H])c1nc(N([H])c2c([H])c([H])c(OC([H])([H])[H])c([H])c2[H])nc2c([H])c([H])c([H])c([H])c12

$$$$
Z57346758_pose7
     RDKit          3D

 41 43  0  0  0  0  0  0  0  0999 V2000
   12.2855   48.3957   53.3992 C   0  0  0  0  0  0  0  0  0  0  0  0
   11.0876   48.7169   54.0939 O   0  0  0  0  0  0  0  0  0  0  0  0
   10.0593   47.8221   53.9931 C   0  0  0  0  0  0  0  0  0  0  0  0
   10.1652   46.4856   53.6187 C   0  0  0  0  0  0  0  0  0  0  0  0
    9.0226   45.6733   53.5578 C   0  0  0  0  0  0  0  0  0  0  0  0
    7.7541   46.1735   53.8630 C   0  0  0  0  0  0  0  0  0  0  0  0
    6.5827   45.4107   53.8320 N   0  0  0  0  0  0  0  0  0  0  0  0
    6.0031   44.5568   52.8954 C   0  0  0  0  0  0  0  0  0  0  0  0
    4.6854   44.3730   53.0501 N   0  0  0  0  0  0  0  0  0  0  0  0
    4.0463   43.5617   52.1894 C   0  0  0  0  0  0  0  0  0  0  0  0
    2.6574   43.3617   52.3409 N   0  0  0  0  0  0  0  0  0  0  0  0
    2.1822   43.0974   53.7041 C   0  0  0  0  0  0  0  0  0  0  0  0
    1.6223   44.3698   54.3525 C   0  0  0  0  0  0  0  0  0  0  0  0
    2.5851   44.9056   55.2657 O   0  0  0  0  0  0  0  0  0  0  0  0
    4.7167   42.9392   51.1226 C   0  0  0  0  0  0  0  0  0  0  0  0
    4.1090   42.1102   50.1440 C   0  0  0  0  0  0  0  0  0  0  0  0
    4.8673   41.5294   49.1292 C   0  0  0  0  0  0  0  0  0  0  0  0
    6.2330   41.7704   49.0797 C   0  0  0  0  0  0  0  0  0  0  0  0
    6.8251   42.5961   50.0386 C   0  0  0  0  0  0  0  0  0  0  0  0
    6.0888   43.1888   51.0583 C   0  0  0  0  0  0  0  0  0  0  0  0
    6.7216   43.9743   51.9311 N   0  0  0  0  0  0  0  0  0  0  0  0
    7.6655   47.5202   54.2444 C   0  0  0  0  0  0  0  0  0  0  0  0
    8.8031   48.3340   54.3078 C   0  0  0  0  0  0  0  0  0  0  0  0
   13.0684   48.1266   54.1234 H   0  0  0  0  0  0  0  0  0  0  0  0
   12.1019   47.5461   52.7250 H   0  0  0  0  0  0  0  0  0  0  0  0
   12.6130   49.2660   52.8115 H   0  0  0  0  0  0  0  0  0  0  0  0
   11.1500   46.0638   53.3693 H   0  0  0  0  0  0  0  0  0  0  0  0
    9.1279   44.6188   53.2630 H   0  0  0  0  0  0  0  0  0  0  0  0
    5.9480   45.5157   54.6088 H   0  0  0  0  0  0  0  0  0  0  0  0
    2.3709   42.5836   51.7454 H   0  0  0  0  0  0  0  0  0  0  0  0
    1.3899   42.3353   53.6665 H   0  0  0  0  0  0  0  0  0  0  0  0
    3.0318   42.7442   54.3068 H   0  0  0  0  0  0  0  0  0  0  0  0
    1.4045   45.1134   53.5717 H   0  0  0  0  0  0  0  0  0  0  0  0
    0.6978   44.1266   54.8967 H   0  0  0  0  0  0  0  0  0  0  0  0
    2.8019   45.7994   54.9465 H   0  0  0  0  0  0  0  0  0  0  0  0
    3.0258   41.9238   50.1871 H   0  0  0  0  0  0  0  0  0  0  0  0
    4.3885   40.8868   48.3757 H   0  0  0  0  0  0  0  0  0  0  0  0
    6.8465   41.3135   48.2891 H   0  0  0  0  0  0  0  0  0  0  0  0
    7.9078   42.7832   49.9852 H   0  0  0  0  0  0  0  0  0  0  0  0
    6.6833   47.9454   54.4987 H   0  0  0  0  0  0  0  0  0  0  0  0
    8.7036   49.3873   54.6090 H   0  0  0  0  0  0  0  0  0  0  0  0
  1  2  1  0
  2  3  1  0
  3  4  2  0
  4  5  1  0
  5  6  2  0
  6  7  1  0
  7  8  1  0
  8  9  2  0
  9 10  1  0
 10 11  1  0
 11 12  1  0
 12 13  1  0
 13 14  1  0
 10 15  2  0
 15 16  1  0
 16 17  2  0
 17 18  1  0
 18 19  2  0
 19 20  1  0
 20 21  2  0
  6 22  1  0
 22 23  2  0
 23  3  1  0
 21  8  1  0
 20 15  1  0
  1 24  1  0
  1 25  1  0
  1 26  1  0
  4 27  1  0
  5 28  1  0
  7 29  1  0
 11 30  1  0
 12 31  1  0
 12 32  1  0
 13 33  1  0
 13 34  1  0
 14 35  1  0
 16 36  1  0
 17 37  1  0
 18 38  1  0
 19 39  1  0
 22 40  1  0
 23 41  1  0
M  END
>  <meeko>  (467) 
{"is_sidechain": false}

>  <CID>  (467) 
Z57346758

>  <pose_index>  (467) 
7

>  <docking_score>  (467) 
-7.679

>  <rmsd_to_best_selected>  (467) 
1.859736782201248

>  <MWT>  (467) 
310.3569999999997

>  <TPSA>  (467) 
79.3

>  <logP>  (467) 
2.786200000000001

>  <HBD>  (467) 
3

>  <HBA>  (467) 
6

>  <SMILES>  (467) 
[H]OC([H])([H])C([H])([H])N([H])c1nc(N([H])c2c([H])c([H])c(OC([H])([H])[H])c([H])c2[H])nc2c([H])c([H])c([H])c([H])c12

$$$$
Z645226424_pose5
     RDKit          3D

 41 44  0  0  0  0  0  0  0  0999 V2000
    8.1400   47.9700   53.2238 C   0  0  0  0  0  0  0  0  0  0  0  0
    9.2666   47.4419   52.6072 C   0  0  0  0  0  0  0  0  0  0  0  0
    9.2808   46.0987   52.2433 C   0  0  0  0  0  0  0  0  0  0  0  0
    8.1552   45.3172   52.5034 C   0  0  0  0  0  0  0  0  0  0  0  0
    8.1344   43.8499   52.1328 C   0  0  0  0  0  0  0  0  0  0  0  0
    8.2026   43.6207   50.7213 O   0  0  0  0  0  0  0  0  0  0  0  0
    7.0784   43.1739   50.0821 C   0  0  0  0  0  0  0  0  0  0  0  0
    7.0336   42.5012   48.8623 C   0  0  0  0  0  0  0  0  0  0  0  0
    5.8064   42.0885   48.3341 C   0  0  0  0  0  0  0  0  0  0  0  0
    4.6218   42.3486   49.0213 C   0  0  0  0  0  0  0  0  0  0  0  0
    4.6470   43.0220   50.2477 C   0  0  0  0  0  0  0  0  0  0  0  0
    3.3682   43.3081   50.9976 C   0  0  0  0  0  0  0  0  0  0  0  0
    3.6024   43.1497   52.4337 N   0  0  0  0  0  0  0  0  0  0  0  0
    3.1776   44.2795   53.1382 C   0  0  0  0  0  0  0  0  0  0  0  0
    2.1100   44.9598   52.6831 N   0  0  0  0  0  0  0  0  0  0  0  0
    1.7064   46.0522   53.3704 C   0  0  0  0  0  0  0  0  0  0  0  0
    2.2415   46.5798   54.4798 N   0  0  0  0  0  0  0  0  0  0  0  0
    3.3254   45.9032   54.8972 C   0  0  0  0  0  0  0  0  0  0  0  0
    4.0926   46.2144   55.9894 N   0  0  0  0  0  0  0  0  0  0  0  0
    5.0482   45.3104   56.0022 C   0  0  0  0  0  0  0  0  0  0  0  0
    4.9222   44.4261   54.9674 N   0  0  0  0  0  0  0  0  0  0  0  0
    3.8084   44.7782   54.2593 C   0  0  0  0  0  0  0  0  0  0  0  0
    5.8858   43.4249   50.7693 C   0  0  0  0  0  0  0  0  0  0  0  0
    7.0499   45.8179   53.1136 N   0  0  0  0  0  0  0  0  0  0  0  0
    7.0667   47.1253   53.4553 C   0  0  0  0  0  0  0  0  0  0  0  0
    8.1010   49.0287   53.5200 H   0  0  0  0  0  0  0  0  0  0  0  0
   10.1403   48.0798   52.4080 H   0  0  0  0  0  0  0  0  0  0  0  0
   10.1656   45.6604   51.7585 H   0  0  0  0  0  0  0  0  0  0  0  0
    8.9954   43.3576   52.6084 H   0  0  0  0  0  0  0  0  0  0  0  0
    7.1760   43.4392   52.4834 H   0  0  0  0  0  0  0  0  0  0  0  0
    7.9648   42.2946   48.3144 H   0  0  0  0  0  0  0  0  0  0  0  0
    5.7757   41.5561   47.3720 H   0  0  0  0  0  0  0  0  0  0  0  0
    3.6609   42.0225   48.5967 H   0  0  0  0  0  0  0  0  0  0  0  0
    3.0433   44.3383   50.7899 H   0  0  0  0  0  0  0  0  0  0  0  0
    2.5862   42.6060   50.6727 H   0  0  0  0  0  0  0  0  0  0  0  0
    4.6127   43.1279   52.5864 H   0  0  0  0  0  0  0  0  0  0  0  0
    0.8262   46.5745   52.9672 H   0  0  0  0  0  0  0  0  0  0  0  0
    5.8506   45.2709   56.7537 H   0  0  0  0  0  0  0  0  0  0  0  0
    5.5446   43.6617   54.7465 H   0  0  0  0  0  0  0  0  0  0  0  0
    5.9199   43.9479   51.7364 H   0  0  0  0  0  0  0  0  0  0  0  0
    6.1755   47.5434   53.9461 H   0  0  0  0  0  0  0  0  0  0  0  0
  1  2  2  0
  2  3  1  0
  3  4  2  0
  4  5  1  0
  5  6  1  0
  6  7  1  0
  7  8  2  0
  8  9  1  0
  9 10  2  0
 10 11  1  0
 11 12  1  0
 12 13  1  0
 13 14  1  0
 14 15  2  0
 15 16  1  0
 16 17  2  0
 17 18  1  0
 18 19  1  0
 19 20  2  0
 20 21  1  0
 21 22  1  0
 11 23  2  0
  4 24  1  0
 24 25  2  0
 25  1  1  0
 23  7  1  0
 22 14  1  0
 22 18  2  0
  1 26  1  0
  2 27  1  0
  3 28  1  0
  5 29  1  0
  5 30  1  0
  8 31  1  0
  9 32  1  0
 10 33  1  0
 12 34  1  0
 12 35  1  0
 13 36  1  0
 16 37  1  0
 20 38  1  0
 21 39  1  0
 23 40  1  0
 25 41  1  0
M  END
>  <meeko>  (468) 
{"is_sidechain": false}

>  <CID>  (468) 
Z645226424

>  <pose_index>  (468) 
5

>  <docking_score>  (468) 
-9.134

>  <rmsd_to_best_selected>  (468) 
1.6304964103514508

>  <MWT>  (468) 
332.36699999999973

>  <TPSA>  (468) 
88.61

>  <logP>  (468) 
2.939

>  <HBD>  (468) 
2

>  <HBA>  (468) 
6

>  <SMILES>  (468) 
[H]c1nc(N([H])C([H])([H])c2c([H])c([H])c([H])c(OC([H])([H])c3nc([H])c([H])c([H])c3[H])c2[H])c2c(n1)nc([H])n2[H]

$$$$
Z645226424_pose1
     RDKit          3D

 41 44  0  0  0  0  0  0  0  0999 V2000
    9.8980   47.1800   53.7800 C   0  0  0  0  0  0  0  0  0  0  0  0
   10.1240   46.6820   52.5030 C   0  0  0  0  0  0  0  0  0  0  0  0
    9.0420   46.2840   51.7230 C   0  0  0  0  0  0  0  0  0  0  0  0
    7.7540   46.4040   52.2450 C   0  0  0  0  0  0  0  0  0  0  0  0
    6.5510   45.9720   51.4330 C   0  0  0  0  0  0  0  0  0  0  0  0
    6.8960   45.2010   50.2760 O   0  0  0  0  0  0  0  0  0  0  0  0
    6.4410   43.9140   50.1970 C   0  0  0  0  0  0  0  0  0  0  0  0
    7.1400   42.8190   49.6910 C   0  0  0  0  0  0  0  0  0  0  0  0
    6.5510   41.5520   49.6860 C   0  0  0  0  0  0  0  0  0  0  0  0
    5.2610   41.3730   50.1850 C   0  0  0  0  0  0  0  0  0  0  0  0
    4.5440   42.4610   50.6990 C   0  0  0  0  0  0  0  0  0  0  0  0
    3.1470   42.2750   51.2410 C   0  0  0  0  0  0  0  0  0  0  0  0
    3.1450   42.5490   52.6780 N   0  0  0  0  0  0  0  0  0  0  0  0
    2.8960   43.9020   52.9300 C   0  0  0  0  0  0  0  0  0  0  0  0
    1.9500   44.5290   52.2090 N   0  0  0  0  0  0  0  0  0  0  0  0
    1.7170   45.8370   52.4580 C   0  0  0  0  0  0  0  0  0  0  0  0
    2.3190   46.6320   53.3520 N   0  0  0  0  0  0  0  0  0  0  0  0
    3.2820   45.9930   54.0390 C   0  0  0  0  0  0  0  0  0  0  0  0
    4.0810   46.5480   55.0030 N   0  0  0  0  0  0  0  0  0  0  0  0
    4.8850   45.5770   55.3800 C   0  0  0  0  0  0  0  0  0  0  0  0
    4.6300   44.4180   54.7010 N   0  0  0  0  0  0  0  0  0  0  0  0
    3.5890   44.6600   53.8510 C   0  0  0  0  0  0  0  0  0  0  0  0
    5.1500   43.7260   50.7030 C   0  0  0  0  0  0  0  0  0  0  0  0
    7.5190   46.8820   53.4950 N   0  0  0  0  0  0  0  0  0  0  0  0
    8.5890   47.2590   54.2270 C   0  0  0  0  0  0  0  0  0  0  0  0
   10.7342   47.5023   54.4179 H   0  0  0  0  0  0  0  0  0  0  0  0
   11.1490   46.6029   52.1117 H   0  0  0  0  0  0  0  0  0  0  0  0
    9.2000   45.8815   50.7116 H   0  0  0  0  0  0  0  0  0  0  0  0
    5.8963   45.3644   52.0750 H   0  0  0  0  0  0  0  0  0  0  0  0
    6.0516   46.8859   51.0787 H   0  0  0  0  0  0  0  0  0  0  0  0
    8.1574   42.9528   49.2948 H   0  0  0  0  0  0  0  0  0  0  0  0
    7.1075   40.6914   49.2865 H   0  0  0  0  0  0  0  0  0  0  0  0
    4.8043   40.3723   50.1749 H   0  0  0  0  0  0  0  0  0  0  0  0
    2.4607   42.9690   50.7337 H   0  0  0  0  0  0  0  0  0  0  0  0
    2.8175   41.2408   51.0628 H   0  0  0  0  0  0  0  0  0  0  0  0
    4.0940   42.4040   53.0270 H   0  0  0  0  0  0  0  0  0  0  0  0
    0.9325   46.3089   51.8483 H   0  0  0  0  0  0  0  0  0  0  0  0
    5.6661   45.6845   56.1470 H   0  0  0  0  0  0  0  0  0  0  0  0
    5.1280   43.5430   54.7910 H   0  0  0  0  0  0  0  0  0  0  0  0
    4.6000   44.5865   51.1116 H   0  0  0  0  0  0  0  0  0  0  0  0
    8.4108   47.6524   55.2387 H   0  0  0  0  0  0  0  0  0  0  0  0
  1  2  2  0
  2  3  1  0
  3  4  2  0
  4  5  1  0
  5  6  1  0
  6  7  1  0
  7  8  2  0
  8  9  1  0
  9 10  2  0
 10 11  1  0
 11 12  1  0
 12 13  1  0
 13 14  1  0
 14 15  2  0
 15 16  1  0
 16 17  2  0
 17 18  1  0
 18 19  1  0
 19 20  2  0
 20 21  1  0
 21 22  1  0
 11 23  2  0
  4 24  1  0
 24 25  2  0
 25  1  1  0
 23  7  1  0
 22 14  1  0
 22 18  2  0
  1 26  1  0
  2 27  1  0
  3 28  1  0
  5 29  1  0
  5 30  1  0
  8 31  1  0
  9 32  1  0
 10 33  1  0
 12 34  1  0
 12 35  1  0
 13 36  1  0
 16 37  1  0
 20 38  1  0
 21 39  1  0
 23 40  1  0
 25 41  1  0
M  END
>  <meeko>  (469) 
{"is_sidechain": false}

>  <CID>  (469) 
Z645226424

>  <pose_index>  (469) 
1

>  <docking_score>  (469) 
-9.673

>  <rmsd_to_best_selected>  (469) 
0.0

>  <MWT>  (469) 
332.36699999999973

>  <TPSA>  (469) 
88.61

>  <logP>  (469) 
2.939

>  <HBD>  (469) 
2

>  <HBA>  (469) 
6

>  <SMILES>  (469) 
[H]c1nc(N([H])C([H])([H])c2c([H])c([H])c([H])c(OC([H])([H])c3nc([H])c([H])c([H])c3[H])c2[H])c2c(n1)nc([H])n2[H]

$$$$
Z645226424_pose2
     RDKit          3D

 41 44  0  0  0  0  0  0  0  0999 V2000
   10.2177   47.1692   53.8475 C   0  0  0  0  0  0  0  0  0  0  0  0
   10.5329   46.5912   52.6251 C   0  0  0  0  0  0  0  0  0  0  0  0
    9.5077   46.1933   51.7721 C   0  0  0  0  0  0  0  0  0  0  0  0
    8.1851   46.3956   52.1674 C   0  0  0  0  0  0  0  0  0  0  0  0
    7.0406   45.9681   51.2737 C   0  0  0  0  0  0  0  0  0  0  0  0
    7.4281   45.0192   50.2731 O   0  0  0  0  0  0  0  0  0  0  0  0
    6.7803   43.8143   50.2389 C   0  0  0  0  0  0  0  0  0  0  0  0
    7.3466   42.5806   49.9220 C   0  0  0  0  0  0  0  0  0  0  0  0
    6.5623   41.4234   49.9415 C   0  0  0  0  0  0  0  0  0  0  0  0
    5.2107   41.4947   50.2751 C   0  0  0  0  0  0  0  0  0  0  0  0
    4.6248   42.7258   50.5964 C   0  0  0  0  0  0  0  0  0  0  0  0
    3.1616   42.8111   50.9588 C   0  0  0  0  0  0  0  0  0  0  0  0
    3.0023   42.5702   52.3928 N   0  0  0  0  0  0  0  0  0  0  0  0
    2.4553   43.6866   53.0312 C   0  0  0  0  0  0  0  0  0  0  0  0
    1.1276   43.8867   52.9585 N   0  0  0  0  0  0  0  0  0  0  0  0
    0.6078   44.9697   53.5782 C   0  0  0  0  0  0  0  0  0  0  0  0
    1.2512   45.9143   54.2782 N   0  0  0  0  0  0  0  0  0  0  0  0
    2.5797   45.7118   54.3099 C   0  0  0  0  0  0  0  0  0  0  0  0
    3.4974   46.5180   54.9305 N   0  0  0  0  0  0  0  0  0  0  0  0
    4.6624   45.9576   54.6862 C   0  0  0  0  0  0  0  0  0  0  0  0
    4.5299   44.8210   53.9384 N   0  0  0  0  0  0  0  0  0  0  0  0
    3.1968   44.6344   53.7068 C   0  0  0  0  0  0  0  0  0  0  0  0
    5.4248   43.8783   50.5788 C   0  0  0  0  0  0  0  0  0  0  0  0
    7.8622   46.9528   53.3638 N   0  0  0  0  0  0  0  0  0  0  0  0
    8.8797   47.3272   54.1697 C   0  0  0  0  0  0  0  0  0  0  0  0
   11.0082   47.4927   54.5407 H   0  0  0  0  0  0  0  0  0  0  0  0
   11.5839   46.4490   52.3333 H   0  0  0  0  0  0  0  0  0  0  0  0
    9.7364   45.7270   50.8024 H   0  0  0  0  0  0  0  0  0  0  0  0
    6.2584   45.5151   51.9005 H   0  0  0  0  0  0  0  0  0  0  0  0
    6.6827   46.8667   50.7499 H   0  0  0  0  0  0  0  0  0  0  0  0
    8.4121   42.5175   49.6563 H   0  0  0  0  0  0  0  0  0  0  0  0
    7.0140   40.4519   49.6923 H   0  0  0  0  0  0  0  0  0  0  0  0
    4.6010   40.5792   50.2862 H   0  0  0  0  0  0  0  0  0  0  0  0
    2.7794   43.8121   50.7100 H   0  0  0  0  0  0  0  0  0  0  0  0
    2.5980   42.0541   50.3938 H   0  0  0  0  0  0  0  0  0  0  0  0
    3.9339   42.4816   52.8022 H   0  0  0  0  0  0  0  0  0  0  0  0
   -0.4825   45.0913   53.4977 H   0  0  0  0  0  0  0  0  0  0  0  0
    5.6250   46.3549   55.0404 H   0  0  0  0  0  0  0  0  0  0  0  0
    5.2759   44.2293   53.5998 H   0  0  0  0  0  0  0  0  0  0  0  0
    4.9781   44.8497   50.8370 H   0  0  0  0  0  0  0  0  0  0  0  0
    8.6311   47.7844   55.1389 H   0  0  0  0  0  0  0  0  0  0  0  0
  1  2  2  0
  2  3  1  0
  3  4  2  0
  4  5  1  0
  5  6  1  0
  6  7  1  0
  7  8  2  0
  8  9  1  0
  9 10  2  0
 10 11  1  0
 11 12  1  0
 12 13  1  0
 13 14  1  0
 14 15  2  0
 15 16  1  0
 16 17  2  0
 17 18  1  0
 18 19  1  0
 19 20  2  0
 20 21  1  0
 21 22  1  0
 11 23  2  0
  4 24  1  0
 24 25  2  0
 25  1  1  0
 23  7  1  0
 22 14  1  0
 22 18  2  0
  1 26  1  0
  2 27  1  0
  3 28  1  0
  5 29  1  0
  5 30  1  0
  8 31  1  0
  9 32  1  0
 10 33  1  0
 12 34  1  0
 12 35  1  0
 13 36  1  0
 16 37  1  0
 20 38  1  0
 21 39  1  0
 23 40  1  0
 25 41  1  0
M  END
>  <meeko>  (470) 
{"is_sidechain": false}

>  <CID>  (470) 
Z645226424

>  <pose_index>  (470) 
2

>  <docking_score>  (470) 
-9.431

>  <rmsd_to_best_selected>  (470) 
0.8133291932332032

>  <MWT>  (470) 
332.36699999999973

>  <TPSA>  (470) 
88.61

>  <logP>  (470) 
2.939

>  <HBD>  (470) 
2

>  <HBA>  (470) 
6

>  <SMILES>  (470) 
[H]c1nc(N([H])C([H])([H])c2c([H])c([H])c([H])c(OC([H])([H])c3nc([H])c([H])c([H])c3[H])c2[H])c2c(n1)nc([H])n2[H]

$$$$
Z645226424_pose6
     RDKit          3D

 41 44  0  0  0  0  0  0  0  0999 V2000
    8.7663   46.7730   54.6026 C   0  0  0  0  0  0  0  0  0  0  0  0
    8.2322   47.4272   53.4998 C   0  0  0  0  0  0  0  0  0  0  0  0
    8.1123   46.7458   52.2919 C   0  0  0  0  0  0  0  0  0  0  0  0
    8.5269   45.4164   52.2241 C   0  0  0  0  0  0  0  0  0  0  0  0
    8.4245   44.6429   50.9267 C   0  0  0  0  0  0  0  0  0  0  0  0
    8.1695   43.2463   51.1187 O   0  0  0  0  0  0  0  0  0  0  0  0
    7.0484   42.7086   50.5490 C   0  0  0  0  0  0  0  0  0  0  0  0
    6.9910   41.5592   49.7631 C   0  0  0  0  0  0  0  0  0  0  0  0
    5.7660   41.1169   49.2566 C   0  0  0  0  0  0  0  0  0  0  0  0
    4.5941   41.8208   49.5316 C   0  0  0  0  0  0  0  0  0  0  0  0
    4.6328   42.9773   50.3213 C   0  0  0  0  0  0  0  0  0  0  0  0
    3.3688   43.7459   50.6226 C   0  0  0  0  0  0  0  0  0  0  0  0
    3.7164   45.0310   51.2297 N   0  0  0  0  0  0  0  0  0  0  0  0
    3.1000   45.1810   52.4758 C   0  0  0  0  0  0  0  0  0  0  0  0
    1.7638   45.0527   52.5529 N   0  0  0  0  0  0  0  0  0  0  0  0
    1.1754   45.2000   53.7615 C   0  0  0  0  0  0  0  0  0  0  0  0
    1.7534   45.4720   54.9392 N   0  0  0  0  0  0  0  0  0  0  0  0
    3.0852   45.6271   54.8314 C   0  0  0  0  0  0  0  0  0  0  0  0
    3.9408   45.9292   55.8583 N   0  0  0  0  0  0  0  0  0  0  0  0
    5.1283   46.0080   55.2978 C   0  0  0  0  0  0  0  0  0  0  0  0
    5.0708   45.7634   53.9539 N   0  0  0  0  0  0  0  0  0  0  0  0
    3.7694   45.4952   53.6400 C   0  0  0  0  0  0  0  0  0  0  0  0
    5.8685   43.4072   50.8275 C   0  0  0  0  0  0  0  0  0  0  0  0
    9.0590   44.7665   53.2924 N   0  0  0  0  0  0  0  0  0  0  0  0
    9.1633   45.4547   54.4502 C   0  0  0  0  0  0  0  0  0  0  0  0
    8.8710   47.2872   55.5694 H   0  0  0  0  0  0  0  0  0  0  0  0
    7.9067   48.4749   53.5803 H   0  0  0  0  0  0  0  0  0  0  0  0
    7.6972   47.2480   51.4056 H   0  0  0  0  0  0  0  0  0  0  0  0
    7.6045   45.0688   50.3299 H   0  0  0  0  0  0  0  0  0  0  0  0
    9.3958   44.7300   50.4177 H   0  0  0  0  0  0  0  0  0  0  0  0
    7.9115   40.9993   49.5411 H   0  0  0  0  0  0  0  0  0  0  0  0
    5.7259   40.2084   48.6376 H   0  0  0  0  0  0  0  0  0  0  0  0
    3.6347   41.4664   49.1266 H   0  0  0  0  0  0  0  0  0  0  0  0
    2.8129   43.9191   49.6893 H   0  0  0  0  0  0  0  0  0  0  0  0
    2.7430   43.1674   51.3181 H   0  0  0  0  0  0  0  0  0  0  0  0
    3.3036   45.7705   50.6593 H   0  0  0  0  0  0  0  0  0  0  0  0
    0.0820   45.0814   53.7801 H   0  0  0  0  0  0  0  0  0  0  0  0
    6.0542   46.2421   55.8436 H   0  0  0  0  0  0  0  0  0  0  0  0
    5.8417   45.7922   53.3007 H   0  0  0  0  0  0  0  0  0  0  0  0
    5.9107   44.3098   51.4549 H   0  0  0  0  0  0  0  0  0  0  0  0
    9.5885   44.9378   55.3232 H   0  0  0  0  0  0  0  0  0  0  0  0
  1  2  2  0
  2  3  1  0
  3  4  2  0
  4  5  1  0
  5  6  1  0
  6  7  1  0
  7  8  2  0
  8  9  1  0
  9 10  2  0
 10 11  1  0
 11 12  1  0
 12 13  1  0
 13 14  1  0
 14 15  2  0
 15 16  1  0
 16 17  2  0
 17 18  1  0
 18 19  1  0
 19 20  2  0
 20 21  1  0
 21 22  1  0
 11 23  2  0
  4 24  1  0
 24 25  2  0
 25  1  1  0
 23  7  1  0
 22 14  1  0
 22 18  2  0
  1 26  1  0
  2 27  1  0
  3 28  1  0
  5 29  1  0
  5 30  1  0
  8 31  1  0
  9 32  1  0
 10 33  1  0
 12 34  1  0
 12 35  1  0
 13 36  1  0
 16 37  1  0
 20 38  1  0
 21 39  1  0
 23 40  1  0
 25 41  1  0
M  END
>  <meeko>  (471) 
{"is_sidechain": false}

>  <CID>  (471) 
Z645226424

>  <pose_index>  (471) 
6

>  <docking_score>  (471) 
-8.904

>  <rmsd_to_best_selected>  (471) 
1.980072425990994

>  <MWT>  (471) 
332.36699999999973

>  <TPSA>  (471) 
88.61

>  <logP>  (471) 
2.939

>  <HBD>  (471) 
2

>  <HBA>  (471) 
6

>  <SMILES>  (471) 
[H]c1nc(N([H])C([H])([H])c2c([H])c([H])c([H])c(OC([H])([H])c3nc([H])c([H])c([H])c3[H])c2[H])c2c(n1)nc([H])n2[H]

$$$$
Z645226424_pose10
     RDKit          3D

 41 44  0  0  0  0  0  0  0  0999 V2000
    9.2064   47.3632   54.5236 C   0  0  0  0  0  0  0  0  0  0  0  0
   10.2470   46.5406   54.1133 C   0  0  0  0  0  0  0  0  0  0  0  0
    9.9633   45.3994   53.3682 C   0  0  0  0  0  0  0  0  0  0  0  0
    8.6359   45.1177   53.0463 C   0  0  0  0  0  0  0  0  0  0  0  0
    8.2831   43.8812   52.2470 C   0  0  0  0  0  0  0  0  0  0  0  0
    8.0116   44.1565   50.8676 O   0  0  0  0  0  0  0  0  0  0  0  0
    7.0453   43.4214   50.2384 C   0  0  0  0  0  0  0  0  0  0  0  0
    7.2129   42.6399   49.0972 C   0  0  0  0  0  0  0  0  0  0  0  0
    6.1318   41.9272   48.5694 C   0  0  0  0  0  0  0  0  0  0  0  0
    4.8805   41.9939   49.1797 C   0  0  0  0  0  0  0  0  0  0  0  0
    4.6925   42.7732   50.3282 C   0  0  0  0  0  0  0  0  0  0  0  0
    3.3399   42.8517   50.9939 C   0  0  0  0  0  0  0  0  0  0  0  0
    3.5138   43.2066   52.4029 N   0  0  0  0  0  0  0  0  0  0  0  0
    2.7041   44.2916   52.7502 C   0  0  0  0  0  0  0  0  0  0  0  0
    1.3961   44.2458   52.4420 N   0  0  0  0  0  0  0  0  0  0  0  0
    0.6206   45.3008   52.7795 C   0  0  0  0  0  0  0  0  0  0  0  0
    0.9827   46.4333   53.3969 N   0  0  0  0  0  0  0  0  0  0  0  0
    2.2990   46.4706   53.6660 C   0  0  0  0  0  0  0  0  0  0  0  0
    2.9629   47.5045   54.2721 N   0  0  0  0  0  0  0  0  0  0  0  0
    4.2225   47.1257   54.3084 C   0  0  0  0  0  0  0  0  0  0  0  0
    4.3932   45.8868   53.7561 N   0  0  0  0  0  0  0  0  0  0  0  0
    3.1662   45.4412   53.3574 C   0  0  0  0  0  0  0  0  0  0  0  0
    5.7871   43.4790   50.8498 C   0  0  0  0  0  0  0  0  0  0  0  0
    7.6071   45.9094   53.4482 N   0  0  0  0  0  0  0  0  0  0  0  0
    7.9158   47.0088   54.1708 C   0  0  0  0  0  0  0  0  0  0  0  0
    9.4023   48.2713   55.1126 H   0  0  0  0  0  0  0  0  0  0  0  0
   11.2863   46.7884   54.3747 H   0  0  0  0  0  0  0  0  0  0  0  0
   10.7726   44.7312   53.0387 H   0  0  0  0  0  0  0  0  0  0  0  0
    9.1261   43.1769   52.3030 H   0  0  0  0  0  0  0  0  0  0  0  0
    7.3638   43.4629   52.6827 H   0  0  0  0  0  0  0  0  0  0  0  0
    8.1976   42.5835   48.6104 H   0  0  0  0  0  0  0  0  0  0  0  0
    6.2695   41.3112   47.6686 H   0  0  0  0  0  0  0  0  0  0  0  0
    4.0354   41.4310   48.7567 H   0  0  0  0  0  0  0  0  0  0  0  0
    2.7287   43.6179   50.4947 H   0  0  0  0  0  0  0  0  0  0  0  0
    2.8355   41.8770   50.9191 H   0  0  0  0  0  0  0  0  0  0  0  0
    4.4648   43.5589   52.5233 H   0  0  0  0  0  0  0  0  0  0  0  0
   -0.4435   45.2188   52.5130 H   0  0  0  0  0  0  0  0  0  0  0  0
    5.0377   47.7312   54.7311 H   0  0  0  0  0  0  0  0  0  0  0  0
    5.2661   45.3916   53.6407 H   0  0  0  0  0  0  0  0  0  0  0  0
    5.6544   44.0888   51.7556 H   0  0  0  0  0  0  0  0  0  0  0  0
    7.0924   47.6608   54.4980 H   0  0  0  0  0  0  0  0  0  0  0  0
  1  2  2  0
  2  3  1  0
  3  4  2  0
  4  5  1  0
  5  6  1  0
  6  7  1  0
  7  8  2  0
  8  9  1  0
  9 10  2  0
 10 11  1  0
 11 12  1  0
 12 13  1  0
 13 14  1  0
 14 15  2  0
 15 16  1  0
 16 17  2  0
 17 18  1  0
 18 19  1  0
 19 20  2  0
 20 21  1  0
 21 22  1  0
 11 23  2  0
  4 24  1  0
 24 25  2  0
 25  1  1  0
 23  7  1  0
 22 14  1  0
 22 18  2  0
  1 26  1  0
  2 27  1  0
  3 28  1  0
  5 29  1  0
  5 30  1  0
  8 31  1  0
  9 32  1  0
 10 33  1  0
 12 34  1  0
 12 35  1  0
 13 36  1  0
 16 37  1  0
 20 38  1  0
 21 39  1  0
 23 40  1  0
 25 41  1  0
M  END
>  <meeko>  (472) 
{"is_sidechain": false}

>  <CID>  (472) 
Z645226424

>  <pose_index>  (472) 
10

>  <docking_score>  (472) 
-8.65

>  <rmsd_to_best_selected>  (472) 
1.6177473496005925

>  <MWT>  (472) 
332.36699999999973

>  <TPSA>  (472) 
88.61

>  <logP>  (472) 
2.939

>  <HBD>  (472) 
2

>  <HBA>  (472) 
6

>  <SMILES>  (472) 
[H]c1nc(N([H])C([H])([H])c2c([H])c([H])c([H])c(OC([H])([H])c3nc([H])c([H])c([H])c3[H])c2[H])c2c(n1)nc([H])n2[H]

$$$$
Z646130978_pose2
     RDKit          3D

 42 44  0  0  0  0  0  0  0  0999 V2000
    5.6474   42.0872   51.1735 C   0  0  0  0  0  0  0  0  0  0  0  0
    5.7834   43.0774   50.1162 N   0  0  0  0  0  0  0  0  0  0  0  0
    4.6784   43.1649   49.1761 C   0  0  0  0  0  0  0  0  0  0  0  0
    6.6766   44.1489   50.1788 C   0  0  0  0  0  0  0  0  0  0  0  0
    6.6540   45.0687   49.3572 O   0  0  0  0  0  0  0  0  0  0  0  0
    7.7470   44.1370   51.2737 C   0  0  0  0  0  0  0  0  0  0  0  0
    8.5566   45.3029   51.2044 O   0  0  0  0  0  0  0  0  0  0  0  0
    8.5132   46.1606   52.2688 C   0  0  0  0  0  0  0  0  0  0  0  0
    9.5614   47.0819   52.3137 C   0  0  0  0  0  0  0  0  0  0  0  0
    9.6397   48.0195   53.3426 C   0  0  0  0  0  0  0  0  0  0  0  0
    8.6689   48.0382   54.3406 C   0  0  0  0  0  0  0  0  0  0  0  0
    7.6147   47.1145   54.3200 C   0  0  0  0  0  0  0  0  0  0  0  0
    6.5514   47.1499   55.3960 C   0  0  0  0  0  0  0  0  0  0  0  0
    5.6597   46.0065   55.2609 N   0  0  0  0  0  0  0  0  0  0  0  0
    4.3410   46.2718   54.9131 C   0  0  0  0  0  0  0  0  0  0  0  0
    3.5512   47.0730   55.6635 N   0  0  0  0  0  0  0  0  0  0  0  0
    2.2752   47.2905   55.2775 C   0  0  0  0  0  0  0  0  0  0  0  0
    1.6439   46.8061   54.2037 N   0  0  0  0  0  0  0  0  0  0  0  0
    2.4277   45.9972   53.4723 C   0  0  0  0  0  0  0  0  0  0  0  0
    2.0471   45.3473   52.3289 N   0  0  0  0  0  0  0  0  0  0  0  0
    3.1038   44.6594   51.9610 C   0  0  0  0  0  0  0  0  0  0  0  0
    4.1516   44.8440   52.8193 N   0  0  0  0  0  0  0  0  0  0  0  0
    3.7433   45.7136   53.7939 C   0  0  0  0  0  0  0  0  0  0  0  0
    7.5404   46.1812   53.2709 C   0  0  0  0  0  0  0  0  0  0  0  0
    6.0306   41.1186   50.8201 H   0  0  0  0  0  0  0  0  0  0  0  0
    6.2223   42.4098   52.0541 H   0  0  0  0  0  0  0  0  0  0  0  0
    4.5865   41.9847   51.4455 H   0  0  0  0  0  0  0  0  0  0  0  0
    5.0685   43.3819   48.1708 H   0  0  0  0  0  0  0  0  0  0  0  0
    4.1343   42.2090   49.1598 H   0  0  0  0  0  0  0  0  0  0  0  0
    3.9959   43.9699   49.4862 H   0  0  0  0  0  0  0  0  0  0  0  0
    7.2558   44.0975   52.2571 H   0  0  0  0  0  0  0  0  0  0  0  0
    8.3881   43.2550   51.1286 H   0  0  0  0  0  0  0  0  0  0  0  0
   10.3328   47.0678   51.5297 H   0  0  0  0  0  0  0  0  0  0  0  0
   10.4675   48.7436   53.3659 H   0  0  0  0  0  0  0  0  0  0  0  0
    8.7294   48.7816   55.1492 H   0  0  0  0  0  0  0  0  0  0  0  0
    7.0336   47.1197   56.3842 H   0  0  0  0  0  0  0  0  0  0  0  0
    5.9661   48.0754   55.2913 H   0  0  0  0  0  0  0  0  0  0  0  0
    6.0654   45.2502   54.7277 H   0  0  0  0  0  0  0  0  0  0  0  0
    1.6812   47.9488   55.9285 H   0  0  0  0  0  0  0  0  0  0  0  0
    3.1410   44.0138   51.0712 H   0  0  0  0  0  0  0  0  0  0  0  0
    5.0573   44.4036   52.7552 H   0  0  0  0  0  0  0  0  0  0  0  0
    6.7093   45.4614   53.2391 H   0  0  0  0  0  0  0  0  0  0  0  0
  1  2  1  0
  2  3  1  0
  2  4  1  0
  4  5  2  0
  4  6  1  0
  6  7  1  0
  7  8  1  0
  8  9  2  0
  9 10  1  0
 10 11  2  0
 11 12  1  0
 12 13  1  0
 13 14  1  0
 14 15  1  0
 15 16  2  0
 16 17  1  0
 17 18  2  0
 18 19  1  0
 19 20  1  0
 20 21  2  0
 21 22  1  0
 22 23  1  0
 12 24  2  0
 24  8  1  0
 23 15  1  0
 23 19  2  0
  1 25  1  0
  1 26  1  0
  1 27  1  0
  3 28  1  0
  3 29  1  0
  3 30  1  0
  6 31  1  0
  6 32  1  0
  9 33  1  0
 10 34  1  0
 11 35  1  0
 13 36  1  0
 13 37  1  0
 14 38  1  0
 17 39  1  0
 21 40  1  0
 22 41  1  0
 24 42  1  0
M  END
>  <meeko>  (473) 
{"is_sidechain": false}

>  <CID>  (473) 
Z646130978

>  <pose_index>  (473) 
2

>  <docking_score>  (473) 
-8.528

>  <rmsd_to_best_selected>  (473) 
0.0

>  <MWT>  (473) 
326.3599999999997

>  <TPSA>  (473) 
96.03

>  <logP>  (473) 
1.4319999999999995

>  <HBD>  (473) 
2

>  <HBA>  (473) 
6

>  <SMILES>  (473) 
[H]c1nc(N([H])C([H])([H])c2c([H])c([H])c([H])c(OC([H])([H])C(=O)N(C([H])([H])[H])C([H])([H])[H])c2[H])c2c(n1)nc([H])n2[H]

$$$$
Z646130978_pose3
     RDKit          3D

 42 44  0  0  0  0  0  0  0  0999 V2000
    7.5407   42.4038   48.9167 C   0  0  0  0  0  0  0  0  0  0  0  0
    6.2706   42.7074   49.5592 N   0  0  0  0  0  0  0  0  0  0  0  0
    5.2529   41.6728   49.4811 C   0  0  0  0  0  0  0  0  0  0  0  0
    6.1166   43.7067   50.5217 C   0  0  0  0  0  0  0  0  0  0  0  0
    5.0781   43.8313   51.1752 O   0  0  0  0  0  0  0  0  0  0  0  0
    7.2616   44.7057   50.7173 C   0  0  0  0  0  0  0  0  0  0  0  0
    8.0068   44.3997   51.8883 O   0  0  0  0  0  0  0  0  0  0  0  0
    8.1535   45.3943   52.8160 C   0  0  0  0  0  0  0  0  0  0  0  0
    9.4499   45.5339   53.3141 C   0  0  0  0  0  0  0  0  0  0  0  0
    9.7446   46.5124   54.2633 C   0  0  0  0  0  0  0  0  0  0  0  0
    8.7387   47.3554   54.7259 C   0  0  0  0  0  0  0  0  0  0  0  0
    7.4273   47.2242   54.2472 C   0  0  0  0  0  0  0  0  0  0  0  0
    6.3411   48.1539   54.7393 C   0  0  0  0  0  0  0  0  0  0  0  0
    5.1392   47.9967   53.9313 N   0  0  0  0  0  0  0  0  0  0  0  0
    4.0103   47.4950   54.5680 C   0  0  0  0  0  0  0  0  0  0  0  0
    3.5908   47.9728   55.7604 N   0  0  0  0  0  0  0  0  0  0  0  0
    2.4889   47.4423   56.3336 C   0  0  0  0  0  0  0  0  0  0  0  0
    1.7064   46.4626   55.8687 N   0  0  0  0  0  0  0  0  0  0  0  0
    2.1395   45.9811   54.6916 C   0  0  0  0  0  0  0  0  0  0  0  0
    1.5477   44.9664   53.9869 N   0  0  0  0  0  0  0  0  0  0  0  0
    2.3022   44.8074   52.9231 C   0  0  0  0  0  0  0  0  0  0  0  0
    3.3522   45.6843   52.9120 N   0  0  0  0  0  0  0  0  0  0  0  0
    3.2597   46.4593   54.0357 C   0  0  0  0  0  0  0  0  0  0  0  0
    7.1456   46.2409   53.2812 C   0  0  0  0  0  0  0  0  0  0  0  0
    7.5792   41.3330   48.6682 H   0  0  0  0  0  0  0  0  0  0  0  0
    7.6369   42.9976   47.9958 H   0  0  0  0  0  0  0  0  0  0  0  0
    8.3659   42.6515   49.6006 H   0  0  0  0  0  0  0  0  0  0  0  0
    5.6781   40.7143   49.8136 H   0  0  0  0  0  0  0  0  0  0  0  0
    4.4056   41.9424   50.1287 H   0  0  0  0  0  0  0  0  0  0  0  0
    4.9048   41.5786   48.4419 H   0  0  0  0  0  0  0  0  0  0  0  0
    7.9293   44.6639   49.8442 H   0  0  0  0  0  0  0  0  0  0  0  0
    6.8341   45.7135   50.8260 H   0  0  0  0  0  0  0  0  0  0  0  0
   10.2466   44.8659   52.9548 H   0  0  0  0  0  0  0  0  0  0  0  0
   10.7706   46.6176   54.6456 H   0  0  0  0  0  0  0  0  0  0  0  0
    8.9737   48.1293   55.4715 H   0  0  0  0  0  0  0  0  0  0  0  0
    6.1076   47.9168   55.7878 H   0  0  0  0  0  0  0  0  0  0  0  0
    6.6943   49.1925   54.6585 H   0  0  0  0  0  0  0  0  0  0  0  0
    4.9428   48.8026   53.3541 H   0  0  0  0  0  0  0  0  0  0  0  0
    2.1986   47.8697   57.3047 H   0  0  0  0  0  0  0  0  0  0  0  0
    2.1128   44.0609   52.1378 H   0  0  0  0  0  0  0  0  0  0  0  0
    4.0745   45.7358   52.2098 H   0  0  0  0  0  0  0  0  0  0  0  0
    6.1229   46.1383   52.8893 H   0  0  0  0  0  0  0  0  0  0  0  0
  1  2  1  0
  2  3  1  0
  2  4  1  0
  4  5  2  0
  4  6  1  0
  6  7  1  0
  7  8  1  0
  8  9  2  0
  9 10  1  0
 10 11  2  0
 11 12  1  0
 12 13  1  0
 13 14  1  0
 14 15  1  0
 15 16  2  0
 16 17  1  0
 17 18  2  0
 18 19  1  0
 19 20  1  0
 20 21  2  0
 21 22  1  0
 22 23  1  0
 12 24  2  0
 24  8  1  0
 23 15  1  0
 23 19  2  0
  1 25  1  0
  1 26  1  0
  1 27  1  0
  3 28  1  0
  3 29  1  0
  3 30  1  0
  6 31  1  0
  6 32  1  0
  9 33  1  0
 10 34  1  0
 11 35  1  0
 13 36  1  0
 13 37  1  0
 14 38  1  0
 17 39  1  0
 21 40  1  0
 22 41  1  0
 24 42  1  0
M  END
>  <meeko>  (474) 
{"is_sidechain": false}

>  <CID>  (474) 
Z646130978

>  <pose_index>  (474) 
3

>  <docking_score>  (474) 
-8.439

>  <rmsd_to_best_selected>  (474) 
1.9340819352423861

>  <MWT>  (474) 
326.3599999999997

>  <TPSA>  (474) 
96.03

>  <logP>  (474) 
1.4319999999999995

>  <HBD>  (474) 
2

>  <HBA>  (474) 
6

>  <SMILES>  (474) 
[H]c1nc(N([H])C([H])([H])c2c([H])c([H])c([H])c(OC([H])([H])C(=O)N(C([H])([H])[H])C([H])([H])[H])c2[H])c2c(n1)nc([H])n2[H]

$$$$
Z646130978_pose7
     RDKit          3D

 42 44  0  0  0  0  0  0  0  0999 V2000
    5.9077   45.1368   49.4109 C   0  0  0  0  0  0  0  0  0  0  0  0
    5.8690   43.7332   49.7940 N   0  0  0  0  0  0  0  0  0  0  0  0
    4.8028   42.9397   49.2037 C   0  0  0  0  0  0  0  0  0  0  0  0
    6.9580   43.0589   50.3485 C   0  0  0  0  0  0  0  0  0  0  0  0
    6.9599   41.8345   50.5030 O   0  0  0  0  0  0  0  0  0  0  0  0
    8.1548   43.8854   50.8261 C   0  0  0  0  0  0  0  0  0  0  0  0
    8.4270   43.6359   52.1994 O   0  0  0  0  0  0  0  0  0  0  0  0
    8.3883   44.7058   53.0507 C   0  0  0  0  0  0  0  0  0  0  0  0
    9.5214   45.5188   53.0111 C   0  0  0  0  0  0  0  0  0  0  0  0
    9.6158   46.6485   53.8234 C   0  0  0  0  0  0  0  0  0  0  0  0
    8.5736   46.9684   54.6894 C   0  0  0  0  0  0  0  0  0  0  0  0
    7.4304   46.1583   54.7535 C   0  0  0  0  0  0  0  0  0  0  0  0
    6.2921   46.5202   55.6819 C   0  0  0  0  0  0  0  0  0  0  0  0
    5.3978   47.4701   55.0354 N   0  0  0  0  0  0  0  0  0  0  0  0
    4.0687   47.0896   54.8896 C   0  0  0  0  0  0  0  0  0  0  0  0
    3.1241   47.4348   55.7912 N   0  0  0  0  0  0  0  0  0  0  0  0
    1.8491   47.0320   55.5990 C   0  0  0  0  0  0  0  0  0  0  0  0
    1.3565   46.3030   54.5919 N   0  0  0  0  0  0  0  0  0  0  0  0
    2.3054   45.9492   53.7090 C   0  0  0  0  0  0  0  0  0  0  0  0
    2.0978   45.1900   52.5868 N   0  0  0  0  0  0  0  0  0  0  0  0
    3.2837   45.0709   52.0342 C   0  0  0  0  0  0  0  0  0  0  0  0
    4.2442   45.7277   52.7521 N   0  0  0  0  0  0  0  0  0  0  0  0
    3.6344   46.3120   53.8287 C   0  0  0  0  0  0  0  0  0  0  0  0
    7.3435   45.0286   53.9197 C   0  0  0  0  0  0  0  0  0  0  0  0
    6.0170   45.2160   48.3192 H   0  0  0  0  0  0  0  0  0  0  0  0
    4.9740   45.6278   49.7225 H   0  0  0  0  0  0  0  0  0  0  0  0
    6.7613   45.6274   49.9014 H   0  0  0  0  0  0  0  0  0  0  0  0
    4.8560   43.0119   48.1073 H   0  0  0  0  0  0  0  0  0  0  0  0
    4.9164   41.8888   49.5079 H   0  0  0  0  0  0  0  0  0  0  0  0
    3.8295   43.3184   49.5493 H   0  0  0  0  0  0  0  0  0  0  0  0
    9.0390   43.6176   50.2290 H   0  0  0  0  0  0  0  0  0  0  0  0
    7.9173   44.9524   50.7027 H   0  0  0  0  0  0  0  0  0  0  0  0
   10.3491   45.2661   52.3321 H   0  0  0  0  0  0  0  0  0  0  0  0
   10.5117   47.2854   53.7800 H   0  0  0  0  0  0  0  0  0  0  0  0
    8.6473   47.8617   55.3271 H   0  0  0  0  0  0  0  0  0  0  0  0
    5.7305   45.6102   55.9399 H   0  0  0  0  0  0  0  0  0  0  0  0
    6.7042   46.9784   56.5931 H   0  0  0  0  0  0  0  0  0  0  0  0
    5.5034   48.4127   55.3835 H   0  0  0  0  0  0  0  0  0  0  0  0
    1.1254   47.3425   56.3670 H   0  0  0  0  0  0  0  0  0  0  0  0
    3.4799   44.5114   51.1076 H   0  0  0  0  0  0  0  0  0  0  0  0
    5.2301   45.7590   52.5359 H   0  0  0  0  0  0  0  0  0  0  0  0
    6.4454   44.3943   53.9524 H   0  0  0  0  0  0  0  0  0  0  0  0
  1  2  1  0
  2  3  1  0
  2  4  1  0
  4  5  2  0
  4  6  1  0
  6  7  1  0
  7  8  1  0
  8  9  2  0
  9 10  1  0
 10 11  2  0
 11 12  1  0
 12 13  1  0
 13 14  1  0
 14 15  1  0
 15 16  2  0
 16 17  1  0
 17 18  2  0
 18 19  1  0
 19 20  1  0
 20 21  2  0
 21 22  1  0
 22 23  1  0
 12 24  2  0
 24  8  1  0
 23 15  1  0
 23 19  2  0
  1 25  1  0
  1 26  1  0
  1 27  1  0
  3 28  1  0
  3 29  1  0
  3 30  1  0
  6 31  1  0
  6 32  1  0
  9 33  1  0
 10 34  1  0
 11 35  1  0
 13 36  1  0
 13 37  1  0
 14 38  1  0
 17 39  1  0
 21 40  1  0
 22 41  1  0
 24 42  1  0
M  END
>  <meeko>  (475) 
{"is_sidechain": false}

>  <CID>  (475) 
Z646130978

>  <pose_index>  (475) 
7

>  <docking_score>  (475) 
-7.996

>  <rmsd_to_best_selected>  (475) 
1.4949943743704528

>  <MWT>  (475) 
326.3599999999997

>  <TPSA>  (475) 
96.03

>  <logP>  (475) 
1.4319999999999995

>  <HBD>  (475) 
2

>  <HBA>  (475) 
6

>  <SMILES>  (475) 
[H]c1nc(N([H])C([H])([H])c2c([H])c([H])c([H])c(OC([H])([H])C(=O)N(C([H])([H])[H])C([H])([H])[H])c2[H])c2c(n1)nc([H])n2[H]

$$$$
Z646130978_pose8
     RDKit          3D

 42 44  0  0  0  0  0  0  0  0999 V2000
    4.9584   43.9385   49.5082 C   0  0  0  0  0  0  0  0  0  0  0  0
    6.2963   43.5151   49.1231 N   0  0  0  0  0  0  0  0  0  0  0  0
    6.5701   43.4844   47.6962 C   0  0  0  0  0  0  0  0  0  0  0  0
    7.3841   43.5155   49.9987 C   0  0  0  0  0  0  0  0  0  0  0  0
    8.5385   43.3210   49.6105 O   0  0  0  0  0  0  0  0  0  0  0  0
    7.1099   43.7091   51.4937 C   0  0  0  0  0  0  0  0  0  0  0  0
    8.3220   43.9053   52.2094 O   0  0  0  0  0  0  0  0  0  0  0  0
    8.3515   44.9198   53.1263 C   0  0  0  0  0  0  0  0  0  0  0  0
    9.5436   45.6459   53.1476 C   0  0  0  0  0  0  0  0  0  0  0  0
    9.7098   46.7128   54.0304 C   0  0  0  0  0  0  0  0  0  0  0  0
    8.6823   47.0566   54.9049 C   0  0  0  0  0  0  0  0  0  0  0  0
    7.4815   46.3330   54.9065 C   0  0  0  0  0  0  0  0  0  0  0  0
    6.3610   46.7219   55.8465 C   0  0  0  0  0  0  0  0  0  0  0  0
    5.3383   47.4695   55.1269 N   0  0  0  0  0  0  0  0  0  0  0  0
    4.0596   46.9274   55.1030 C   0  0  0  0  0  0  0  0  0  0  0  0
    3.2920   46.8550   56.2137 N   0  0  0  0  0  0  0  0  0  0  0  0
    2.0578   46.3142   56.1293 C   0  0  0  0  0  0  0  0  0  0  0  0
    1.4472   45.8133   55.0502 N   0  0  0  0  0  0  0  0  0  0  0  0
    2.2215   45.8726   53.9539 C   0  0  0  0  0  0  0  0  0  0  0  0
    1.8676   45.4203   52.7102 N   0  0  0  0  0  0  0  0  0  0  0  0
    2.9164   45.6531   51.9534 C   0  0  0  0  0  0  0  0  0  0  0  0
    3.9286   46.2407   52.6601 N   0  0  0  0  0  0  0  0  0  0  0  0
    3.4987   46.4036   53.9485 C   0  0  0  0  0  0  0  0  0  0  0  0
    7.3222   45.2669   54.0043 C   0  0  0  0  0  0  0  0  0  0  0  0
    4.4535   44.3910   48.6420 H   0  0  0  0  0  0  0  0  0  0  0  0
    4.3832   43.0669   49.8538 H   0  0  0  0  0  0  0  0  0  0  0  0
    5.0273   44.6777   50.3199 H   0  0  0  0  0  0  0  0  0  0  0  0
    5.7473   43.9737   47.1544 H   0  0  0  0  0  0  0  0  0  0  0  0
    7.5111   44.0163   47.4920 H   0  0  0  0  0  0  0  0  0  0  0  0
    6.6593   42.4402   47.3623 H   0  0  0  0  0  0  0  0  0  0  0  0
    6.4641   44.5889   51.6307 H   0  0  0  0  0  0  0  0  0  0  0  0
    6.6151   42.8060   51.8806 H   0  0  0  0  0  0  0  0  0  0  0  0
   10.3595   45.3740   52.4618 H   0  0  0  0  0  0  0  0  0  0  0  0
   10.6512   47.2817   54.0357 H   0  0  0  0  0  0  0  0  0  0  0  0
    8.8134   47.9005   55.5983 H   0  0  0  0  0  0  0  0  0  0  0  0
    5.9132   45.8127   56.2741 H   0  0  0  0  0  0  0  0  0  0  0  0
    6.7687   47.3529   56.6499 H   0  0  0  0  0  0  0  0  0  0  0  0
    5.3465   48.4562   55.3423 H   0  0  0  0  0  0  0  0  0  0  0  0
    1.4821   46.2816   57.0660 H   0  0  0  0  0  0  0  0  0  0  0  0
    2.9730   45.4055   50.8831 H   0  0  0  0  0  0  0  0  0  0  0  0
    4.8371   46.4921   52.2989 H   0  0  0  0  0  0  0  0  0  0  0  0
    6.3789   44.7012   53.9897 H   0  0  0  0  0  0  0  0  0  0  0  0
  1  2  1  0
  2  3  1  0
  2  4  1  0
  4  5  2  0
  4  6  1  0
  6  7  1  0
  7  8  1  0
  8  9  2  0
  9 10  1  0
 10 11  2  0
 11 12  1  0
 12 13  1  0
 13 14  1  0
 14 15  1  0
 15 16  2  0
 16 17  1  0
 17 18  2  0
 18 19  1  0
 19 20  1  0
 20 21  2  0
 21 22  1  0
 22 23  1  0
 12 24  2  0
 24  8  1  0
 23 15  1  0
 23 19  2  0
  1 25  1  0
  1 26  1  0
  1 27  1  0
  3 28  1  0
  3 29  1  0
  3 30  1  0
  6 31  1  0
  6 32  1  0
  9 33  1  0
 10 34  1  0
 11 35  1  0
 13 36  1  0
 13 37  1  0
 14 38  1  0
 17 39  1  0
 21 40  1  0
 22 41  1  0
 24 42  1  0
M  END
>  <meeko>  (476) 
{"is_sidechain": false}

>  <CID>  (476) 
Z646130978

>  <pose_index>  (476) 
8

>  <docking_score>  (476) 
-7.988

>  <rmsd_to_best_selected>  (476) 
1.5576843678515195

>  <MWT>  (476) 
326.3599999999997

>  <TPSA>  (476) 
96.03

>  <logP>  (476) 
1.4319999999999995

>  <HBD>  (476) 
2

>  <HBA>  (476) 
6

>  <SMILES>  (476) 
[H]c1nc(N([H])C([H])([H])c2c([H])c([H])c([H])c(OC([H])([H])C(=O)N(C([H])([H])[H])C([H])([H])[H])c2[H])c2c(n1)nc([H])n2[H]

$$$$
Z646130978_pose10
     RDKit          3D

 42 44  0  0  0  0  0  0  0  0999 V2000
    4.8056   43.5289   51.0190 C   0  0  0  0  0  0  0  0  0  0  0  0
    5.6542   44.2330   50.0691 N   0  0  0  0  0  0  0  0  0  0  0  0
    4.9843   45.1799   49.1943 C   0  0  0  0  0  0  0  0  0  0  0  0
    7.0394   44.3344   50.2070 C   0  0  0  0  0  0  0  0  0  0  0  0
    7.7164   45.0773   49.4903 O   0  0  0  0  0  0  0  0  0  0  0  0
    7.7317   43.4475   51.2456 C   0  0  0  0  0  0  0  0  0  0  0  0
    8.9380   44.0457   51.7012 O   0  0  0  0  0  0  0  0  0  0  0  0
    8.8697   44.8069   52.8351 C   0  0  0  0  0  0  0  0  0  0  0  0
   10.0256   44.7838   53.6192 C   0  0  0  0  0  0  0  0  0  0  0  0
   10.0980   45.5181   54.8010 C   0  0  0  0  0  0  0  0  0  0  0  0
    9.0073   46.2802   55.2127 C   0  0  0  0  0  0  0  0  0  0  0  0
    7.8328   46.3089   54.4469 C   0  0  0  0  0  0  0  0  0  0  0  0
    6.6573   47.1517   54.8890 C   0  0  0  0  0  0  0  0  0  0  0  0
    5.6320   47.1659   53.8544 N   0  0  0  0  0  0  0  0  0  0  0  0
    4.4555   46.4751   54.1211 C   0  0  0  0  0  0  0  0  0  0  0  0
    4.2190   45.9049   55.3229 N   0  0  0  0  0  0  0  0  0  0  0  0
    3.0582   45.2422   55.5215 C   0  0  0  0  0  0  0  0  0  0  0  0
    2.0544   45.0582   54.6584 N   0  0  0  0  0  0  0  0  0  0  0  0
    2.3038   45.6129   53.4609 C   0  0  0  0  0  0  0  0  0  0  0  0
    1.4639   45.5718   52.3799 N   0  0  0  0  0  0  0  0  0  0  0  0
    2.1049   46.2111   51.4281 C   0  0  0  0  0  0  0  0  0  0  0  0
    3.3211   46.6671   51.8548 N   0  0  0  0  0  0  0  0  0  0  0  0
    3.4649   46.3040   53.1670 C   0  0  0  0  0  0  0  0  0  0  0  0
    7.7778   45.5719   53.2502 C   0  0  0  0  0  0  0  0  0  0  0  0
    3.7598   43.5755   50.6811 H   0  0  0  0  0  0  0  0  0  0  0  0
    5.1231   42.4778   51.0853 H   0  0  0  0  0  0  0  0  0  0  0  0
    4.8926   44.0013   52.0086 H   0  0  0  0  0  0  0  0  0  0  0  0
    5.0898   44.8521   48.1496 H   0  0  0  0  0  0  0  0  0  0  0  0
    3.9172   45.2301   49.4569 H   0  0  0  0  0  0  0  0  0  0  0  0
    5.4385   46.1746   49.3142 H   0  0  0  0  0  0  0  0  0  0  0  0
    7.0565   43.3014   52.1016 H   0  0  0  0  0  0  0  0  0  0  0  0
    7.9735   42.4819   50.7774 H   0  0  0  0  0  0  0  0  0  0  0  0
   10.8877   44.1795   53.3002 H   0  0  0  0  0  0  0  0  0  0  0  0
   11.0151   45.4961   55.4079 H   0  0  0  0  0  0  0  0  0  0  0  0
    9.0675   46.8628   56.1438 H   0  0  0  0  0  0  0  0  0  0  0  0
    6.2351   46.7304   55.8133 H   0  0  0  0  0  0  0  0  0  0  0  0
    7.0007   48.1812   55.0686 H   0  0  0  0  0  0  0  0  0  0  0  0
    5.4721   48.0858   53.4691 H   0  0  0  0  0  0  0  0  0  0  0  0
    2.9224   44.7983   56.5187 H   0  0  0  0  0  0  0  0  0  0  0  0
    1.7113   46.3612   50.4120 H   0  0  0  0  0  0  0  0  0  0  0  0
    3.9989   47.1648   51.2969 H   0  0  0  0  0  0  0  0  0  0  0  0
    6.8659   45.5984   52.6355 H   0  0  0  0  0  0  0  0  0  0  0  0
  1  2  1  0
  2  3  1  0
  2  4  1  0
  4  5  2  0
  4  6  1  0
  6  7  1  0
  7  8  1  0
  8  9  2  0
  9 10  1  0
 10 11  2  0
 11 12  1  0
 12 13  1  0
 13 14  1  0
 14 15  1  0
 15 16  2  0
 16 17  1  0
 17 18  2  0
 18 19  1  0
 19 20  1  0
 20 21  2  0
 21 22  1  0
 22 23  1  0
 12 24  2  0
 24  8  1  0
 23 15  1  0
 23 19  2  0
  1 25  1  0
  1 26  1  0
  1 27  1  0
  3 28  1  0
  3 29  1  0
  3 30  1  0
  6 31  1  0
  6 32  1  0
  9 33  1  0
 10 34  1  0
 11 35  1  0
 13 36  1  0
 13 37  1  0
 14 38  1  0
 17 39  1  0
 21 40  1  0
 22 41  1  0
 24 42  1  0
M  END
>  <meeko>  (477) 
{"is_sidechain": false}

>  <CID>  (477) 
Z646130978

>  <pose_index>  (477) 
10

>  <docking_score>  (477) 
-7.494

>  <rmsd_to_best_selected>  (477) 
1.5171838940180735

>  <MWT>  (477) 
326.3599999999997

>  <TPSA>  (477) 
96.03

>  <logP>  (477) 
1.4319999999999995

>  <HBD>  (477) 
2

>  <HBA>  (477) 
6

>  <SMILES>  (477) 
[H]c1nc(N([H])C([H])([H])c2c([H])c([H])c([H])c(OC([H])([H])C(=O)N(C([H])([H])[H])C([H])([H])[H])c2[H])c2c(n1)nc([H])n2[H]

$$$$
Z646214330_pose10
     RDKit          3D

 47 50  0  0  0  0  0  0  0  0999 V2000
    3.0292   43.9294   55.8094 C   0  0  0  0  0  0  0  0  0  0  0  0
    2.5530   43.0846   54.8123 C   0  0  0  0  0  0  0  0  0  0  0  0
    2.5872   43.4862   53.4712 C   0  0  0  0  0  0  0  0  0  0  0  0
    2.0447   42.5893   52.3864 C   0  0  0  0  0  0  0  0  0  0  0  0
    2.6006   42.9779   51.1294 O   0  0  0  0  0  0  0  0  0  0  0  0
    3.4987   41.9931   50.6237 C   0  0  0  0  0  0  0  0  0  0  0  0
    4.8021   42.6593   50.1621 C   0  0  0  0  0  0  0  0  0  0  0  0
    5.8826   42.6062   51.2482 C   0  0  0  0  0  0  0  0  0  0  0  0
    7.1886   43.2204   50.7463 C   0  0  0  0  0  0  0  0  0  0  0  0
    6.9541   44.2421   49.6364 C   0  0  0  0  0  0  0  0  0  0  0  0
    5.6007   44.9177   49.8035 C   0  0  0  0  0  0  0  0  0  0  0  0
    4.4992   44.0080   49.7769 O   0  0  0  0  0  0  0  0  0  0  0  0
    3.0911   44.7606   53.1529 C   0  0  0  0  0  0  0  0  0  0  0  0
    3.5883   45.6223   54.1396 C   0  0  0  0  0  0  0  0  0  0  0  0
    4.0994   46.9067   53.8759 N   0  0  0  0  0  0  0  0  0  0  0  0
    5.3572   47.2777   53.5801 C   0  0  0  0  0  0  0  0  0  0  0  0
    5.9964   48.4213   53.7296 N   0  0  0  0  0  0  0  0  0  0  0  0
    7.2529   48.1691   53.2416 C   0  0  0  0  0  0  0  0  0  0  0  0
    8.3831   48.9886   53.1288 C   0  0  0  0  0  0  0  0  0  0  0  0
    9.5471   48.4354   52.5733 C   0  0  0  0  0  0  0  0  0  0  0  0
    9.5829   47.1013   52.1434 C   0  0  0  0  0  0  0  0  0  0  0  0
    8.4596   46.2711   52.2510 C   0  0  0  0  0  0  0  0  0  0  0  0
    7.3294   46.8582   52.8078 C   0  0  0  0  0  0  0  0  0  0  0  0
    6.1162   46.2772   53.0254 O   0  0  0  0  0  0  0  0  0  0  0  0
    3.5389   45.1858   55.4733 C   0  0  0  0  0  0  0  0  0  0  0  0
    3.0045   43.6085   56.8613 H   0  0  0  0  0  0  0  0  0  0  0  0
    2.1479   42.0970   55.0783 H   0  0  0  0  0  0  0  0  0  0  0  0
    2.3178   41.5457   52.6018 H   0  0  0  0  0  0  0  0  0  0  0  0
    0.9490   42.6793   52.3479 H   0  0  0  0  0  0  0  0  0  0  0  0
    3.7230   41.2636   51.4159 H   0  0  0  0  0  0  0  0  0  0  0  0
    3.0312   41.4830   49.7686 H   0  0  0  0  0  0  0  0  0  0  0  0
    5.2149   42.1120   49.3018 H   0  0  0  0  0  0  0  0  0  0  0  0
    5.5359   43.1664   52.1291 H   0  0  0  0  0  0  0  0  0  0  0  0
    6.0664   41.5540   51.5109 H   0  0  0  0  0  0  0  0  0  0  0  0
    7.6918   43.7198   51.5874 H   0  0  0  0  0  0  0  0  0  0  0  0
    7.8078   42.4097   50.3349 H   0  0  0  0  0  0  0  0  0  0  0  0
    7.7456   45.0050   49.6749 H   0  0  0  0  0  0  0  0  0  0  0  0
    6.9720   43.7216   48.6675 H   0  0  0  0  0  0  0  0  0  0  0  0
    5.5924   45.4454   50.7687 H   0  0  0  0  0  0  0  0  0  0  0  0
    5.4745   45.6015   48.9512 H   0  0  0  0  0  0  0  0  0  0  0  0
    3.0949   45.0888   52.1030 H   0  0  0  0  0  0  0  0  0  0  0  0
    3.4419   47.6607   54.0162 H   0  0  0  0  0  0  0  0  0  0  0  0
    8.3591   50.0354   53.4659 H   0  0  0  0  0  0  0  0  0  0  0  0
   10.4473   49.0595   52.4733 H   0  0  0  0  0  0  0  0  0  0  0  0
   10.5116   46.6984   51.7131 H   0  0  0  0  0  0  0  0  0  0  0  0
    8.4713   45.2232   51.9167 H   0  0  0  0  0  0  0  0  0  0  0  0
    3.9094   45.8472   56.2703 H   0  0  0  0  0  0  0  0  0  0  0  0
  1  2  2  0
  2  3  1  0
  3  4  1  0
  4  5  1  0
  5  6  1  0
  6  7  1  0
  7  8  1  0
  8  9  1  0
  9 10  1  0
 10 11  1  0
 11 12  1  0
  3 13  2  0
 13 14  1  0
 14 15  1  0
 15 16  1  0
 16 17  2  0
 17 18  1  0
 18 19  2  0
 19 20  1  0
 20 21  2  0
 21 22  1  0
 22 23  2  0
 23 24  1  0
 14 25  2  0
 25  1  1  0
 12  7  1  0
 24 16  1  0
 23 18  1  0
  1 26  1  0
  2 27  1  0
  4 28  1  0
  4 29  1  0
  6 30  1  0
  6 31  1  0
  7 32  1  0
  8 33  1  0
  8 34  1  0
  9 35  1  0
  9 36  1  0
 10 37  1  0
 10 38  1  0
 11 39  1  0
 11 40  1  0
 13 41  1  0
 15 42  1  0
 19 43  1  0
 20 44  1  0
 21 45  1  0
 22 46  1  0
 25 47  1  0
M  END
>  <meeko>  (478) 
{"is_sidechain": false}

>  <CID>  (478) 
Z646214330

>  <pose_index>  (478) 
10

>  <docking_score>  (478) 
-8.136

>  <rmsd_to_best_selected>  (478) 
1.935519544628633

>  <MWT>  (478) 
338.40699999999964

>  <TPSA>  (478) 
56.52

>  <logP>  (478) 
4.657100000000003

>  <HBD>  (478) 
1

>  <HBA>  (478) 
5

>  <SMILES>  (478) 
[H]c1c([H])c(N([H])c2nc3c([H])c([H])c([H])c([H])c3o2)c([H])c(C([H])([H])OC([H])([H])C2([H])OC([H])([H])C([H])([H])C([H])([H])C2([H])[H])c1[H]

$$$$
Z646214330_pose1
     RDKit          3D

 47 50  0  0  0  0  0  0  0  0999 V2000
    1.2860   44.9630   55.5040 C   0  0  0  0  0  0  0  0  0  0  0  0
    1.3000   44.0490   54.4550 C   0  0  0  0  0  0  0  0  0  0  0  0
    2.3690   44.0300   53.5510 C   0  0  0  0  0  0  0  0  0  0  0  0
    2.3780   43.0650   52.3920 C   0  0  0  0  0  0  0  0  0  0  0  0
    3.6520   42.4220   52.3220 O   0  0  0  0  0  0  0  0  0  0  0  0
    3.9480   41.9830   50.9980 C   0  0  0  0  0  0  0  0  0  0  0  0
    5.3370   42.4820   50.5780 C   0  0  0  0  0  0  0  0  0  0  0  0
    5.4360   44.0100   50.6450 C   0  0  0  0  0  0  0  0  0  0  0  0
    6.8440   44.4810   50.2830 C   0  0  0  0  0  0  0  0  0  0  0  0
    7.5690   43.4820   49.3830 C   0  0  0  0  0  0  0  0  0  0  0  0
    6.5800   42.7230   48.5130 C   0  0  0  0  0  0  0  0  0  0  0  0
    5.6080   41.9860   49.2590 O   0  0  0  0  0  0  0  0  0  0  0  0
    3.4140   44.9590   53.7090 C   0  0  0  0  0  0  0  0  0  0  0  0
    3.4270   45.8800   54.7660 C   0  0  0  0  0  0  0  0  0  0  0  0
    4.4440   46.8310   54.9670 N   0  0  0  0  0  0  0  0  0  0  0  0
    5.7000   46.8480   54.4890 C   0  0  0  0  0  0  0  0  0  0  0  0
    6.8490   46.4750   55.0170 N   0  0  0  0  0  0  0  0  0  0  0  0
    7.7700   46.7390   54.0360 C   0  0  0  0  0  0  0  0  0  0  0  0
    9.1590   46.5600   53.9990 C   0  0  0  0  0  0  0  0  0  0  0  0
    9.8420   46.9340   52.8310 C   0  0  0  0  0  0  0  0  0  0  0  0
    9.1580   47.4710   51.7310 C   0  0  0  0  0  0  0  0  0  0  0  0
    7.7700   47.6540   51.7550 C   0  0  0  0  0  0  0  0  0  0  0  0
    7.1330   47.2700   52.9290 C   0  0  0  0  0  0  0  0  0  0  0  0
    5.8020   47.3390   53.2100 O   0  0  0  0  0  0  0  0  0  0  0  0
    2.3380   45.8690   55.6540 C   0  0  0  0  0  0  0  0  0  0  0  0
    0.4466   44.9719   56.2149 H   0  0  0  0  0  0  0  0  0  0  0  0
    0.4684   43.3389   54.3355 H   0  0  0  0  0  0  0  0  0  0  0  0
    1.5924   42.3089   52.5375 H   0  0  0  0  0  0  0  0  0  0  0  0
    2.1895   43.6117   51.4562 H   0  0  0  0  0  0  0  0  0  0  0  0
    3.9309   40.8836   50.9664 H   0  0  0  0  0  0  0  0  0  0  0  0
    3.1945   42.3878   50.3064 H   0  0  0  0  0  0  0  0  0  0  0  0
    6.0956   42.1024   51.2784 H   0  0  0  0  0  0  0  0  0  0  0  0
    4.7164   44.4490   49.9382 H   0  0  0  0  0  0  0  0  0  0  0  0
    5.2105   44.3324   51.6723 H   0  0  0  0  0  0  0  0  0  0  0  0
    6.7718   45.4447   49.7576 H   0  0  0  0  0  0  0  0  0  0  0  0
    7.4197   44.5777   51.2153 H   0  0  0  0  0  0  0  0  0  0  0  0
    8.2751   44.0246   48.7372 H   0  0  0  0  0  0  0  0  0  0  0  0
    8.1064   42.7614   50.0170 H   0  0  0  0  0  0  0  0  0  0  0  0
    6.0524   43.4466   47.8742 H   0  0  0  0  0  0  0  0  0  0  0  0
    7.1592   41.9928   47.9288 H   0  0  0  0  0  0  0  0  0  0  0  0
    4.2419   44.9627   52.9847 H   0  0  0  0  0  0  0  0  0  0  0  0
    4.2210   47.5530   55.6370 H   0  0  0  0  0  0  0  0  0  0  0  0
    9.6986   46.1387   54.8600 H   0  0  0  0  0  0  0  0  0  0  0  0
   10.9329   46.8035   52.7777 H   0  0  0  0  0  0  0  0  0  0  0  0
    9.7233   47.7543   50.8309 H   0  0  0  0  0  0  0  0  0  0  0  0
    7.2196   48.0743   50.9003 H   0  0  0  0  0  0  0  0  0  0  0  0
    2.3137   46.5894   56.4849 H   0  0  0  0  0  0  0  0  0  0  0  0
  1  2  2  0
  2  3  1  0
  3  4  1  0
  4  5  1  0
  5  6  1  0
  6  7  1  0
  7  8  1  0
  8  9  1  0
  9 10  1  0
 10 11  1  0
 11 12  1  0
  3 13  2  0
 13 14  1  0
 14 15  1  0
 15 16  1  0
 16 17  2  0
 17 18  1  0
 18 19  2  0
 19 20  1  0
 20 21  2  0
 21 22  1  0
 22 23  2  0
 23 24  1  0
 14 25  2  0
 25  1  1  0
 12  7  1  0
 24 16  1  0
 23 18  1  0
  1 26  1  0
  2 27  1  0
  4 28  1  0
  4 29  1  0
  6 30  1  0
  6 31  1  0
  7 32  1  0
  8 33  1  0
  8 34  1  0
  9 35  1  0
  9 36  1  0
 10 37  1  0
 10 38  1  0
 11 39  1  0
 11 40  1  0
 13 41  1  0
 15 42  1  0
 19 43  1  0
 20 44  1  0
 21 45  1  0
 22 46  1  0
 25 47  1  0
M  END
>  <meeko>  (479) 
{"is_sidechain": false}

>  <CID>  (479) 
Z646214330

>  <pose_index>  (479) 
1

>  <docking_score>  (479) 
-9.076

>  <rmsd_to_best_selected>  (479) 
0.0

>  <MWT>  (479) 
338.40699999999964

>  <TPSA>  (479) 
56.52

>  <logP>  (479) 
4.657100000000003

>  <HBD>  (479) 
1

>  <HBA>  (479) 
5

>  <SMILES>  (479) 
[H]c1c([H])c(N([H])c2nc3c([H])c([H])c([H])c([H])c3o2)c([H])c(C([H])([H])OC([H])([H])C2([H])OC([H])([H])C([H])([H])C([H])([H])C2([H])[H])c1[H]

$$$$
Z646214330_pose2
     RDKit          3D

 47 50  0  0  0  0  0  0  0  0999 V2000
    1.3713   44.8810   55.5409 C   0  0  0  0  0  0  0  0  0  0  0  0
    1.3196   43.9927   54.4716 C   0  0  0  0  0  0  0  0  0  0  0  0
    2.3399   43.9815   53.5131 C   0  0  0  0  0  0  0  0  0  0  0  0
    2.2757   43.0453   52.3336 C   0  0  0  0  0  0  0  0  0  0  0  0
    3.4812   42.2796   52.2703 O   0  0  0  0  0  0  0  0  0  0  0  0
    3.8577   42.0002   50.9234 C   0  0  0  0  0  0  0  0  0  0  0  0
    5.2486   42.5826   50.6376 C   0  0  0  0  0  0  0  0  0  0  0  0
    5.2173   44.1119   50.5517 C   0  0  0  0  0  0  0  0  0  0  0  0
    6.6211   44.6733   50.3275 C   0  0  0  0  0  0  0  0  0  0  0  0
    7.5399   43.6643   49.6425 C   0  0  0  0  0  0  0  0  0  0  0  0
    6.7434   42.7367   48.7370 C   0  0  0  0  0  0  0  0  0  0  0  0
    5.7378   41.9886   49.4261 O   0  0  0  0  0  0  0  0  0  0  0  0
    3.4057   44.8923   53.6407 C   0  0  0  0  0  0  0  0  0  0  0  0
    3.4856   45.7856   54.7163 C   0  0  0  0  0  0  0  0  0  0  0  0
    4.5253   46.7173   54.8888 N   0  0  0  0  0  0  0  0  0  0  0  0
    5.6388   46.8943   54.1560 C   0  0  0  0  0  0  0  0  0  0  0  0
    5.8451   47.4799   52.9926 N   0  0  0  0  0  0  0  0  0  0  0  0
    7.1910   47.3337   52.7776 C   0  0  0  0  0  0  0  0  0  0  0  0
    8.0093   47.7454   51.7175 C   0  0  0  0  0  0  0  0  0  0  0  0
    9.3773   47.4429   51.7819 C   0  0  0  0  0  0  0  0  0  0  0  0
    9.9157   46.7487   52.8749 C   0  0  0  0  0  0  0  0  0  0  0  0
    9.1105   46.3323   53.9429 C   0  0  0  0  0  0  0  0  0  0  0  0
    7.7620   46.6541   53.8384 C   0  0  0  0  0  0  0  0  0  0  0  0
    6.7721   46.3714   54.7309 O   0  0  0  0  0  0  0  0  0  0  0  0
    2.4436   45.7674   55.6593 C   0  0  0  0  0  0  0  0  0  0  0  0
    0.5681   44.8851   56.2925 H   0  0  0  0  0  0  0  0  0  0  0  0
    0.4733   43.2960   54.3788 H   0  0  0  0  0  0  0  0  0  0  0  0
    1.4164   42.3683   52.4485 H   0  0  0  0  0  0  0  0  0  0  0  0
    2.1607   43.6277   51.4075 H   0  0  0  0  0  0  0  0  0  0  0  0
    3.8796   40.9113   50.7694 H   0  0  0  0  0  0  0  0  0  0  0  0
    3.1265   42.4580   50.2409 H   0  0  0  0  0  0  0  0  0  0  0  0
    5.9297   42.3443   51.4679 H   0  0  0  0  0  0  0  0  0  0  0  0
    4.5709   44.4126   49.7140 H   0  0  0  0  0  0  0  0  0  0  0  0
    4.8265   44.5097   51.4999 H   0  0  0  0  0  0  0  0  0  0  0  0
    6.5474   45.5714   49.6967 H   0  0  0  0  0  0  0  0  0  0  0  0
    7.0522   44.9111   51.3112 H   0  0  0  0  0  0  0  0  0  0  0  0
    8.2841   44.2054   49.0396 H   0  0  0  0  0  0  0  0  0  0  0  0
    8.0388   43.0605   50.4148 H   0  0  0  0  0  0  0  0  0  0  0  0
    6.2546   43.3438   47.9608 H   0  0  0  0  0  0  0  0  0  0  0  0
    7.4533   42.0103   48.3146 H   0  0  0  0  0  0  0  0  0  0  0  0
    4.1961   44.9027   52.8758 H   0  0  0  0  0  0  0  0  0  0  0  0
    4.4653   47.2685   55.7329 H   0  0  0  0  0  0  0  0  0  0  0  0
    7.5906   48.2905   50.8587 H   0  0  0  0  0  0  0  0  0  0  0  0
   10.0393   47.7555   50.9609 H   0  0  0  0  0  0  0  0  0  0  0  0
   10.9929   46.5266   52.8940 H   0  0  0  0  0  0  0  0  0  0  0  0
    9.5180   45.7868   54.8068 H   0  0  0  0  0  0  0  0  0  0  0  0
    2.4735   46.4661   56.5084 H   0  0  0  0  0  0  0  0  0  0  0  0
  1  2  2  0
  2  3  1  0
  3  4  1  0
  4  5  1  0
  5  6  1  0
  6  7  1  0
  7  8  1  0
  8  9  1  0
  9 10  1  0
 10 11  1  0
 11 12  1  0
  3 13  2  0
 13 14  1  0
 14 15  1  0
 15 16  1  0
 16 17  2  0
 17 18  1  0
 18 19  2  0
 19 20  1  0
 20 21  2  0
 21 22  1  0
 22 23  2  0
 23 24  1  0
 14 25  2  0
 25  1  1  0
 12  7  1  0
 24 16  1  0
 23 18  1  0
  1 26  1  0
  2 27  1  0
  4 28  1  0
  4 29  1  0
  6 30  1  0
  6 31  1  0
  7 32  1  0
  8 33  1  0
  8 34  1  0
  9 35  1  0
  9 36  1  0
 10 37  1  0
 10 38  1  0
 11 39  1  0
 11 40  1  0
 13 41  1  0
 15 42  1  0
 19 43  1  0
 20 44  1  0
 21 45  1  0
 22 46  1  0
 25 47  1  0
M  END
>  <meeko>  (480) 
{"is_sidechain": false}

>  <CID>  (480) 
Z646214330

>  <pose_index>  (480) 
2

>  <docking_score>  (480) 
-9.01

>  <rmsd_to_best_selected>  (480) 
1.4593720630099374

>  <MWT>  (480) 
338.40699999999964

>  <TPSA>  (480) 
56.52

>  <logP>  (480) 
4.657100000000003

>  <HBD>  (480) 
1

>  <HBA>  (480) 
5

>  <SMILES>  (480) 
[H]c1c([H])c(N([H])c2nc3c([H])c([H])c([H])c([H])c3o2)c([H])c(C([H])([H])OC([H])([H])C2([H])OC([H])([H])C([H])([H])C([H])([H])C2([H])[H])c1[H]

$$$$
Z646214330_pose4
     RDKit          3D

 47 50  0  0  0  0  0  0  0  0999 V2000
    1.0633   45.1704   55.0732 C   0  0  0  0  0  0  0  0  0  0  0  0
    1.2005   44.0352   54.2814 C   0  0  0  0  0  0  0  0  0  0  0  0
    2.4351   43.7248   53.7005 C   0  0  0  0  0  0  0  0  0  0  0  0
    2.5864   42.5135   52.8146 C   0  0  0  0  0  0  0  0  0  0  0  0
    3.9221   42.4587   52.3110 O   0  0  0  0  0  0  0  0  0  0  0  0
    3.9437   42.3413   50.8898 C   0  0  0  0  0  0  0  0  0  0  0  0
    5.2846   42.8480   50.3427 C   0  0  0  0  0  0  0  0  0  0  0  0
    5.7100   44.1610   51.0087 C   0  0  0  0  0  0  0  0  0  0  0  0
    7.0756   44.6149   50.4943 C   0  0  0  0  0  0  0  0  0  0  0  0
    7.3696   44.0772   49.0961 C   0  0  0  0  0  0  0  0  0  0  0  0
    6.0818   43.8933   48.3069 C   0  0  0  0  0  0  0  0  0  0  0  0
    5.1597   42.9880   48.9192 O   0  0  0  0  0  0  0  0  0  0  0  0
    3.5257   44.5885   53.9131 C   0  0  0  0  0  0  0  0  0  0  0  0
    3.4149   45.7307   54.7174 C   0  0  0  0  0  0  0  0  0  0  0  0
    4.4714   46.6271   54.9603 N   0  0  0  0  0  0  0  0  0  0  0  0
    5.6313   46.7739   54.2967 C   0  0  0  0  0  0  0  0  0  0  0  0
    6.0757   47.7236   53.4970 N   0  0  0  0  0  0  0  0  0  0  0  0
    7.3291   47.3006   53.1373 C   0  0  0  0  0  0  0  0  0  0  0  0
    8.2974   47.8772   52.3064 C   0  0  0  0  0  0  0  0  0  0  0  0
    9.5087   47.1914   52.1276 C   0  0  0  0  0  0  0  0  0  0  0  0
    9.7466   45.9633   52.7604 C   0  0  0  0  0  0  0  0  0  0  0  0
    8.7871   45.3758   53.5948 C   0  0  0  0  0  0  0  0  0  0  0  0
    7.6044   46.0891   53.7454 C   0  0  0  0  0  0  0  0  0  0  0  0
    6.5195   45.7459   54.4958 O   0  0  0  0  0  0  0  0  0  0  0  0
    2.1600   46.0093   55.2852 C   0  0  0  0  0  0  0  0  0  0  0  0
    0.0921   45.4075   55.5320 H   0  0  0  0  0  0  0  0  0  0  0  0
    0.3347   43.3784   54.1112 H   0  0  0  0  0  0  0  0  0  0  0  0
    2.3759   41.6043   53.3968 H   0  0  0  0  0  0  0  0  0  0  0  0
    1.8792   42.5815   51.9747 H   0  0  0  0  0  0  0  0  0  0  0  0
    3.8111   41.2859   50.6092 H   0  0  0  0  0  0  0  0  0  0  0  0
    3.1284   42.9451   50.4647 H   0  0  0  0  0  0  0  0  0  0  0  0
    6.0786   42.1231   50.5754 H   0  0  0  0  0  0  0  0  0  0  0  0
    4.9639   44.9374   50.7836 H   0  0  0  0  0  0  0  0  0  0  0  0
    5.7791   43.9986   52.0944 H   0  0  0  0  0  0  0  0  0  0  0  0
    7.0955   45.7143   50.4631 H   0  0  0  0  0  0  0  0  0  0  0  0
    7.8429   44.2214   51.1771 H   0  0  0  0  0  0  0  0  0  0  0  0
    8.0195   44.7885   48.5654 H   0  0  0  0  0  0  0  0  0  0  0  0
    7.8678   43.1011   49.1910 H   0  0  0  0  0  0  0  0  0  0  0  0
    5.5924   44.8733   48.2066 H   0  0  0  0  0  0  0  0  0  0  0  0
    6.3587   43.4626   47.3333 H   0  0  0  0  0  0  0  0  0  0  0  0
    4.4901   44.3611   53.4355 H   0  0  0  0  0  0  0  0  0  0  0  0
    4.3768   47.1729   55.8044 H   0  0  0  0  0  0  0  0  0  0  0  0
    8.1139   48.8405   51.8079 H   0  0  0  0  0  0  0  0  0  0  0  0
   10.2848   47.6250   51.4798 H   0  0  0  0  0  0  0  0  0  0  0  0
   10.7063   45.4507   52.5984 H   0  0  0  0  0  0  0  0  0  0  0  0
    8.9588   44.4127   54.0978 H   0  0  0  0  0  0  0  0  0  0  0  0
    2.0388   46.9067   55.9097 H   0  0  0  0  0  0  0  0  0  0  0  0
  1  2  2  0
  2  3  1  0
  3  4  1  0
  4  5  1  0
  5  6  1  0
  6  7  1  0
  7  8  1  0
  8  9  1  0
  9 10  1  0
 10 11  1  0
 11 12  1  0
  3 13  2  0
 13 14  1  0
 14 15  1  0
 15 16  1  0
 16 17  2  0
 17 18  1  0
 18 19  2  0
 19 20  1  0
 20 21  2  0
 21 22  1  0
 22 23  2  0
 23 24  1  0
 14 25  2  0
 25  1  1  0
 12  7  1  0
 24 16  1  0
 23 18  1  0
  1 26  1  0
  2 27  1  0
  4 28  1  0
  4 29  1  0
  6 30  1  0
  6 31  1  0
  7 32  1  0
  8 33  1  0
  8 34  1  0
  9 35  1  0
  9 36  1  0
 10 37  1  0
 10 38  1  0
 11 39  1  0
 11 40  1  0
 13 41  1  0
 15 42  1  0
 19 43  1  0
 20 44  1  0
 21 45  1  0
 22 46  1  0
 25 47  1  0
M  END
>  <meeko>  (481) 
{"is_sidechain": false}

>  <CID>  (481) 
Z646214330

>  <pose_index>  (481) 
4

>  <docking_score>  (481) 
-8.924

>  <rmsd_to_best_selected>  (481) 
1.5292841583872303

>  <MWT>  (481) 
338.40699999999964

>  <TPSA>  (481) 
56.52

>  <logP>  (481) 
4.657100000000003

>  <HBD>  (481) 
1

>  <HBA>  (481) 
5

>  <SMILES>  (481) 
[H]c1c([H])c(N([H])c2nc3c([H])c([H])c([H])c([H])c3o2)c([H])c(C([H])([H])OC([H])([H])C2([H])OC([H])([H])C([H])([H])C([H])([H])C2([H])[H])c1[H]

$$$$
Z646214330_pose5
     RDKit          3D

 47 50  0  0  0  0  0  0  0  0999 V2000
    1.5621   44.9516   55.5375 C   0  0  0  0  0  0  0  0  0  0  0  0
    1.5705   43.8320   54.7121 C   0  0  0  0  0  0  0  0  0  0  0  0
    2.5076   43.7254   53.6770 C   0  0  0  0  0  0  0  0  0  0  0  0
    2.5038   42.5303   52.7576 C   0  0  0  0  0  0  0  0  0  0  0  0
    3.0192   42.9145   51.4809 O   0  0  0  0  0  0  0  0  0  0  0  0
    4.1508   42.1276   51.1123 C   0  0  0  0  0  0  0  0  0  0  0  0
    5.2835   43.0380   50.6196 C   0  0  0  0  0  0  0  0  0  0  0  0
    4.7592   44.4086   50.1782 C   0  0  0  0  0  0  0  0  0  0  0  0
    5.9084   45.3191   49.7495 C   0  0  0  0  0  0  0  0  0  0  0  0
    7.1223   44.5257   49.2705 C   0  0  0  0  0  0  0  0  0  0  0  0
    6.6912   43.2026   48.6550 C   0  0  0  0  0  0  0  0  0  0  0  0
    5.9676   42.3604   49.5558 O   0  0  0  0  0  0  0  0  0  0  0  0
    3.4239   44.7742   53.4757 C   0  0  0  0  0  0  0  0  0  0  0  0
    3.4434   45.9047   54.3023 C   0  0  0  0  0  0  0  0  0  0  0  0
    4.3348   46.9808   54.1428 N   0  0  0  0  0  0  0  0  0  0  0  0
    5.6651   46.9628   53.9495 C   0  0  0  0  0  0  0  0  0  0  0  0
    6.6202   47.7960   54.3130 N   0  0  0  0  0  0  0  0  0  0  0  0
    7.7667   47.2282   53.8209 C   0  0  0  0  0  0  0  0  0  0  0  0
    9.1034   47.6397   53.8829 C   0  0  0  0  0  0  0  0  0  0  0  0
   10.0737   46.8310   53.2709 C   0  0  0  0  0  0  0  0  0  0  0  0
    9.7189   45.6435   52.6159 C   0  0  0  0  0  0  0  0  0  0  0  0
    8.3858   45.2188   52.5476 C   0  0  0  0  0  0  0  0  0  0  0  0
    7.4589   46.0483   53.1673 C   0  0  0  0  0  0  0  0  0  0  0  0
    6.1107   45.8685   53.2492 O   0  0  0  0  0  0  0  0  0  0  0  0
    2.4888   45.9765   55.3317 C   0  0  0  0  0  0  0  0  0  0  0  0
    0.8265   45.0300   56.3516 H   0  0  0  0  0  0  0  0  0  0  0  0
    0.8381   43.0272   54.8731 H   0  0  0  0  0  0  0  0  0  0  0  0
    3.1342   41.7364   53.1845 H   0  0  0  0  0  0  0  0  0  0  0  0
    1.4754   42.1573   52.6426 H   0  0  0  0  0  0  0  0  0  0  0  0
    4.4969   41.5553   51.9856 H   0  0  0  0  0  0  0  0  0  0  0  0
    3.8641   41.4379   50.3047 H   0  0  0  0  0  0  0  0  0  0  0  0
    5.9850   43.2370   51.4431 H   0  0  0  0  0  0  0  0  0  0  0  0
    4.0703   44.2750   49.3311 H   0  0  0  0  0  0  0  0  0  0  0  0
    4.2383   44.8758   51.0269 H   0  0  0  0  0  0  0  0  0  0  0  0
    5.5617   45.9659   48.9301 H   0  0  0  0  0  0  0  0  0  0  0  0
    6.2150   45.9119   50.6238 H   0  0  0  0  0  0  0  0  0  0  0  0
    7.6643   45.1152   48.5163 H   0  0  0  0  0  0  0  0  0  0  0  0
    7.7728   44.3193   50.1331 H   0  0  0  0  0  0  0  0  0  0  0  0
    6.0498   43.4155   47.7871 H   0  0  0  0  0  0  0  0  0  0  0  0
    7.6082   42.6631   48.3757 H   0  0  0  0  0  0  0  0  0  0  0  0
    4.1441   44.7043   52.6472 H   0  0  0  0  0  0  0  0  0  0  0  0
    3.9255   47.8941   54.2808 H   0  0  0  0  0  0  0  0  0  0  0  0
    9.3853   48.5706   54.3969 H   0  0  0  0  0  0  0  0  0  0  0  0
   11.1305   47.1342   53.3057 H   0  0  0  0  0  0  0  0  0  0  0  0
   10.5036   45.0325   52.1459 H   0  0  0  0  0  0  0  0  0  0  0  0
    8.0919   44.2898   52.0371 H   0  0  0  0  0  0  0  0  0  0  0  0
    2.4712   46.8583   55.9891 H   0  0  0  0  0  0  0  0  0  0  0  0
  1  2  2  0
  2  3  1  0
  3  4  1  0
  4  5  1  0
  5  6  1  0
  6  7  1  0
  7  8  1  0
  8  9  1  0
  9 10  1  0
 10 11  1  0
 11 12  1  0
  3 13  2  0
 13 14  1  0
 14 15  1  0
 15 16  1  0
 16 17  2  0
 17 18  1  0
 18 19  2  0
 19 20  1  0
 20 21  2  0
 21 22  1  0
 22 23  2  0
 23 24  1  0
 14 25  2  0
 25  1  1  0
 12  7  1  0
 24 16  1  0
 23 18  1  0
  1 26  1  0
  2 27  1  0
  4 28  1  0
  4 29  1  0
  6 30  1  0
  6 31  1  0
  7 32  1  0
  8 33  1  0
  8 34  1  0
  9 35  1  0
  9 36  1  0
 10 37  1  0
 10 38  1  0
 11 39  1  0
 11 40  1  0
 13 41  1  0
 15 42  1  0
 19 43  1  0
 20 44  1  0
 21 45  1  0
 22 46  1  0
 25 47  1  0
M  END
>  <meeko>  (482) 
{"is_sidechain": false}

>  <CID>  (482) 
Z646214330

>  <pose_index>  (482) 
5

>  <docking_score>  (482) 
-8.683

>  <rmsd_to_best_selected>  (482) 
1.3737839691117824

>  <MWT>  (482) 
338.40699999999964

>  <TPSA>  (482) 
56.52

>  <logP>  (482) 
4.657100000000003

>  <HBD>  (482) 
1

>  <HBA>  (482) 
5

>  <SMILES>  (482) 
[H]c1c([H])c(N([H])c2nc3c([H])c([H])c([H])c([H])c3o2)c([H])c(C([H])([H])OC([H])([H])C2([H])OC([H])([H])C([H])([H])C([H])([H])C2([H])[H])c1[H]

$$$$
Z89684168_pose3
     RDKit          3D

 38 40  0  0  0  0  0  0  0  0999 V2000
    6.6957   46.5455   51.3325 N   0  0  0  0  0  0  0  0  0  0  0  0
    7.6165   46.4123   52.0262 C   0  0  0  0  0  0  0  0  0  0  0  0
    8.7231   46.2304   52.9233 C   0  0  0  0  0  0  0  0  0  0  0  0
    9.9580   45.8132   52.4076 C   0  0  0  0  0  0  0  0  0  0  0  0
   11.0494   45.6287   53.2571 C   0  0  0  0  0  0  0  0  0  0  0  0
   10.9108   45.8488   54.6260 C   0  0  0  0  0  0  0  0  0  0  0  0
    9.6858   46.2648   55.1496 C   0  0  0  0  0  0  0  0  0  0  0  0
    8.5972   46.4766   54.2985 C   0  0  0  0  0  0  0  0  0  0  0  0
    7.3748   46.8628   54.7851 O   0  0  0  0  0  0  0  0  0  0  0  0
    6.5783   45.7896   55.3198 C   0  0  0  0  0  0  0  0  0  0  0  0
    5.2418   45.5727   54.6340 C   0  0  0  0  0  0  0  0  0  0  0  0
    4.2434   46.4022   54.9240 N   0  0  0  0  0  0  0  0  0  0  0  0
    3.1059   46.1587   54.3011 C   0  0  0  0  0  0  0  0  0  0  0  0
    2.0384   46.9779   54.6030 N   0  0  0  0  0  0  0  0  0  0  0  0
    2.9256   45.2080   53.4022 N   0  0  0  0  0  0  0  0  0  0  0  0
    3.9732   44.4302   53.1540 C   0  0  0  0  0  0  0  0  0  0  0  0
    3.9157   43.3937   52.2238 N   0  0  0  0  0  0  0  0  0  0  0  0
    4.1154   43.3155   50.8406 C   0  0  0  0  0  0  0  0  0  0  0  0
    3.0951   43.0728   49.9156 C   0  0  0  0  0  0  0  0  0  0  0  0
    3.3563   43.0300   48.5411 C   0  0  0  0  0  0  0  0  0  0  0  0
    4.6480   43.2380   48.0655 C   0  0  0  0  0  0  0  0  0  0  0  0
    5.6771   43.4906   48.9663 C   0  0  0  0  0  0  0  0  0  0  0  0
    5.4100   43.5315   50.3381 C   0  0  0  0  0  0  0  0  0  0  0  0
    5.1571   44.5783   53.7461 N   0  0  0  0  0  0  0  0  0  0  0  0
   10.0671   45.6305   51.3284 H   0  0  0  0  0  0  0  0  0  0  0  0
   12.0187   45.3097   52.8464 H   0  0  0  0  0  0  0  0  0  0  0  0
   11.7694   45.6943   55.2960 H   0  0  0  0  0  0  0  0  0  0  0  0
    9.5769   46.4261   56.2322 H   0  0  0  0  0  0  0  0  0  0  0  0
    7.1593   44.8595   55.2346 H   0  0  0  0  0  0  0  0  0  0  0  0
    6.3465   46.0696   56.3580 H   0  0  0  0  0  0  0  0  0  0  0  0
    2.0649   47.2638   55.5700 H   0  0  0  0  0  0  0  0  0  0  0  0
    1.1744   46.5769   54.2567 H   0  0  0  0  0  0  0  0  0  0  0  0
    3.5822   42.5556   52.6771 H   0  0  0  0  0  0  0  0  0  0  0  0
    2.0679   42.9125   50.2749 H   0  0  0  0  0  0  0  0  0  0  0  0
    2.5376   42.8313   47.8338 H   0  0  0  0  0  0  0  0  0  0  0  0
    4.8532   43.2028   46.9854 H   0  0  0  0  0  0  0  0  0  0  0  0
    6.7005   43.6581   48.5997 H   0  0  0  0  0  0  0  0  0  0  0  0
    6.2317   43.7374   51.0399 H   0  0  0  0  0  0  0  0  0  0  0  0
  1  2  3  0
  2  3  1  0
  3  4  2  0
  4  5  1  0
  5  6  2  0
  6  7  1  0
  7  8  2  0
  8  9  1  0
  9 10  1  0
 10 11  1  0
 11 12  2  0
 12 13  1  0
 13 14  1  0
 13 15  2  0
 15 16  1  0
 16 17  1  0
 17 18  1  0
 18 19  2  0
 19 20  1  0
 20 21  2  0
 21 22  1  0
 22 23  2  0
 16 24  2  0
  8  3  1  0
 24 11  1  0
 23 18  1  0
  4 25  1  0
  5 26  1  0
  6 27  1  0
  7 28  1  0
 10 29  1  0
 10 30  1  0
 14 31  1  0
 14 32  1  0
 17 33  1  0
 19 34  1  0
 20 35  1  0
 21 36  1  0
 22 37  1  0
 23 38  1  0
M  END
>  <meeko>  (483) 
{"is_sidechain": false}

>  <CID>  (483) 
Z89684168

>  <pose_index>  (483) 
3

>  <docking_score>  (483) 
-9.007

>  <rmsd_to_best_selected>  (483) 
0.0

>  <MWT>  (483) 
318.33999999999975

>  <TPSA>  (483) 
109.74

>  <logP>  (483) 
2.64808

>  <HBD>  (483) 
2

>  <HBA>  (483) 
7

>  <SMILES>  (483) 
[H]c1c([H])c([H])c(N([H])c2nc(N([H])[H])nc(C([H])([H])Oc3c([H])c([H])c([H])c([H])c3C#N)n2)c([H])c1[H]

$$$$
Z89684168_pose4
     RDKit          3D

 38 40  0  0  0  0  0  0  0  0999 V2000
    8.8469   43.8233   51.4306 N   0  0  0  0  0  0  0  0  0  0  0  0
    9.2297   44.4749   52.3120 C   0  0  0  0  0  0  0  0  0  0  0  0
    9.6598   45.2644   53.4314 C   0  0  0  0  0  0  0  0  0  0  0  0
   10.8542   44.9275   54.0853 C   0  0  0  0  0  0  0  0  0  0  0  0
   11.2949   45.6768   55.1752 C   0  0  0  0  0  0  0  0  0  0  0  0
   10.5430   46.7614   55.6251 C   0  0  0  0  0  0  0  0  0  0  0  0
    9.3544   47.1059   54.9816 C   0  0  0  0  0  0  0  0  0  0  0  0
    8.9219   46.3725   53.8715 C   0  0  0  0  0  0  0  0  0  0  0  0
    7.7463   46.6727   53.2313 O   0  0  0  0  0  0  0  0  0  0  0  0
    6.6330   46.9189   54.1121 C   0  0  0  0  0  0  0  0  0  0  0  0
    5.4470   45.9908   53.9287 C   0  0  0  0  0  0  0  0  0  0  0  0
    4.4207   46.1071   54.7663 N   0  0  0  0  0  0  0  0  0  0  0  0
    3.4234   45.2689   54.5594 C   0  0  0  0  0  0  0  0  0  0  0  0
    2.3557   45.3379   55.4307 N   0  0  0  0  0  0  0  0  0  0  0  0
    3.3653   44.3917   53.5742 N   0  0  0  0  0  0  0  0  0  0  0  0
    4.4201   44.3461   52.7685 C   0  0  0  0  0  0  0  0  0  0  0  0
    4.4826   43.4677   51.6881 N   0  0  0  0  0  0  0  0  0  0  0  0
    3.9813   43.4958   50.3807 C   0  0  0  0  0  0  0  0  0  0  0  0
    2.6273   43.3592   50.0596 C   0  0  0  0  0  0  0  0  0  0  0  0
    2.1869   43.4194   48.7325 C   0  0  0  0  0  0  0  0  0  0  0  0
    3.0967   43.6277   47.7001 C   0  0  0  0  0  0  0  0  0  0  0  0
    4.4460   43.7764   47.9958 C   0  0  0  0  0  0  0  0  0  0  0  0
    4.8805   43.7137   49.3249 C   0  0  0  0  0  0  0  0  0  0  0  0
    5.4866   45.1327   52.9067 N   0  0  0  0  0  0  0  0  0  0  0  0
   11.4458   44.0681   53.7365 H   0  0  0  0  0  0  0  0  0  0  0  0
   12.2357   45.4125   55.6801 H   0  0  0  0  0  0  0  0  0  0  0  0
   10.8881   47.3469   56.4900 H   0  0  0  0  0  0  0  0  0  0  0  0
    8.7571   47.9543   55.3469 H   0  0  0  0  0  0  0  0  0  0  0  0
    6.9891   46.8156   55.1478 H   0  0  0  0  0  0  0  0  0  0  0  0
    6.2704   47.9290   53.8709 H   0  0  0  0  0  0  0  0  0  0  0  0
    1.5203   45.6428   54.9543 H   0  0  0  0  0  0  0  0  0  0  0  0
    2.6189   45.8291   56.2760 H   0  0  0  0  0  0  0  0  0  0  0  0
    4.9289   42.6107   51.9789 H   0  0  0  0  0  0  0  0  0  0  0  0
    1.8948   43.2015   50.8649 H   0  0  0  0  0  0  0  0  0  0  0  0
    1.1172   43.3015   48.5045 H   0  0  0  0  0  0  0  0  0  0  0  0
    2.7498   43.6744   46.6573 H   0  0  0  0  0  0  0  0  0  0  0  0
    5.1720   43.9431   47.1864 H   0  0  0  0  0  0  0  0  0  0  0  0
    5.9507   43.8379   49.5471 H   0  0  0  0  0  0  0  0  0  0  0  0
  1  2  3  0
  2  3  1  0
  3  4  2  0
  4  5  1  0
  5  6  2  0
  6  7  1  0
  7  8  2  0
  8  9  1  0
  9 10  1  0
 10 11  1  0
 11 12  2  0
 12 13  1  0
 13 14  1  0
 13 15  2  0
 15 16  1  0
 16 17  1  0
 17 18  1  0
 18 19  2  0
 19 20  1  0
 20 21  2  0
 21 22  1  0
 22 23  2  0
 16 24  2  0
  8  3  1  0
 24 11  1  0
 23 18  1  0
  4 25  1  0
  5 26  1  0
  6 27  1  0
  7 28  1  0
 10 29  1  0
 10 30  1  0
 14 31  1  0
 14 32  1  0
 17 33  1  0
 19 34  1  0
 20 35  1  0
 21 36  1  0
 22 37  1  0
 23 38  1  0
M  END
>  <meeko>  (484) 
{"is_sidechain": false}

>  <CID>  (484) 
Z89684168

>  <pose_index>  (484) 
4

>  <docking_score>  (484) 
-8.989

>  <rmsd_to_best_selected>  (484) 
1.7461461220517283

>  <MWT>  (484) 
318.33999999999975

>  <TPSA>  (484) 
109.74

>  <logP>  (484) 
2.64808

>  <HBD>  (484) 
2

>  <HBA>  (484) 
7

>  <SMILES>  (484) 
[H]c1c([H])c([H])c(N([H])c2nc(N([H])[H])nc(C([H])([H])Oc3c([H])c([H])c([H])c([H])c3C#N)n2)c([H])c1[H]

$$$$
Z89684168_pose5
     RDKit          3D

 38 40  0  0  0  0  0  0  0  0999 V2000
    8.6019   44.0106   51.4421 N   0  0  0  0  0  0  0  0  0  0  0  0
    8.9963   44.5897   52.3680 C   0  0  0  0  0  0  0  0  0  0  0  0
    9.5332   45.2848   53.5038 C   0  0  0  0  0  0  0  0  0  0  0  0
   10.7151   46.0242   53.3560 C   0  0  0  0  0  0  0  0  0  0  0  0
   11.2586   46.7085   54.4426 C   0  0  0  0  0  0  0  0  0  0  0  0
   10.6304   46.6515   55.6865 C   0  0  0  0  0  0  0  0  0  0  0  0
    9.4528   45.9183   55.8444 C   0  0  0  0  0  0  0  0  0  0  0  0
    8.8915   45.2532   54.7506 C   0  0  0  0  0  0  0  0  0  0  0  0
    7.7469   44.5063   54.8795 O   0  0  0  0  0  0  0  0  0  0  0  0
    6.6175   45.2301   55.4024 C   0  0  0  0  0  0  0  0  0  0  0  0
    5.4504   45.3859   54.4444 C   0  0  0  0  0  0  0  0  0  0  0  0
    4.3041   45.8640   54.9216 N   0  0  0  0  0  0  0  0  0  0  0  0
    3.3265   45.9692   54.0430 C   0  0  0  0  0  0  0  0  0  0  0  0
    2.1118   46.4284   54.5086 N   0  0  0  0  0  0  0  0  0  0  0  0
    3.4326   45.6905   52.7558 N   0  0  0  0  0  0  0  0  0  0  0  0
    4.6133   45.2346   52.3519 C   0  0  0  0  0  0  0  0  0  0  0  0
    4.8582   44.9072   51.0193 N   0  0  0  0  0  0  0  0  0  0  0  0
    4.1827   44.1347   50.0668 C   0  0  0  0  0  0  0  0  0  0  0  0
    2.8771   43.6596   50.2286 C   0  0  0  0  0  0  0  0  0  0  0  0
    2.2492   42.9100   49.2267 C   0  0  0  0  0  0  0  0  0  0  0  0
    2.9146   42.6312   48.0376 C   0  0  0  0  0  0  0  0  0  0  0  0
    4.2085   43.1011   47.8503 C   0  0  0  0  0  0  0  0  0  0  0  0
    4.8325   43.8484   48.8545 C   0  0  0  0  0  0  0  0  0  0  0  0
    5.6566   45.0688   53.1644 N   0  0  0  0  0  0  0  0  0  0  0  0
   11.2165   46.0646   52.3777 H   0  0  0  0  0  0  0  0  0  0  0  0
   12.1822   47.2929   54.3188 H   0  0  0  0  0  0  0  0  0  0  0  0
   11.0637   47.1855   56.5450 H   0  0  0  0  0  0  0  0  0  0  0  0
    8.9667   45.8640   56.8297 H   0  0  0  0  0  0  0  0  0  0  0  0
    6.2564   44.6986   56.2952 H   0  0  0  0  0  0  0  0  0  0  0  0
    6.9779   46.2479   55.6128 H   0  0  0  0  0  0  0  0  0  0  0  0
    1.5332   46.7529   53.7478 H   0  0  0  0  0  0  0  0  0  0  0  0
    2.2466   47.0533   55.2937 H   0  0  0  0  0  0  0  0  0  0  0  0
    5.7621   45.2633   50.7485 H   0  0  0  0  0  0  0  0  0  0  0  0
    2.3340   43.8788   51.1597 H   0  0  0  0  0  0  0  0  0  0  0  0
    1.2248   42.5399   49.3807 H   0  0  0  0  0  0  0  0  0  0  0  0
    2.4198   42.0427   47.2509 H   0  0  0  0  0  0  0  0  0  0  0  0
    4.7420   42.8855   46.9127 H   0  0  0  0  0  0  0  0  0  0  0  0
    5.8549   44.2202   48.6914 H   0  0  0  0  0  0  0  0  0  0  0  0
  1  2  3  0
  2  3  1  0
  3  4  2  0
  4  5  1  0
  5  6  2  0
  6  7  1  0
  7  8  2  0
  8  9  1  0
  9 10  1  0
 10 11  1  0
 11 12  2  0
 12 13  1  0
 13 14  1  0
 13 15  2  0
 15 16  1  0
 16 17  1  0
 17 18  1  0
 18 19  2  0
 19 20  1  0
 20 21  2  0
 21 22  1  0
 22 23  2  0
 16 24  2  0
  8  3  1  0
 24 11  1  0
 23 18  1  0
  4 25  1  0
  5 26  1  0
  6 27  1  0
  7 28  1  0
 10 29  1  0
 10 30  1  0
 14 31  1  0
 14 32  1  0
 17 33  1  0
 19 34  1  0
 20 35  1  0
 21 36  1  0
 22 37  1  0
 23 38  1  0
M  END
>  <meeko>  (485) 
{"is_sidechain": false}

>  <CID>  (485) 
Z89684168

>  <pose_index>  (485) 
5

>  <docking_score>  (485) 
-8.918

>  <rmsd_to_best_selected>  (485) 
1.720189849490804

>  <MWT>  (485) 
318.33999999999975

>  <TPSA>  (485) 
109.74

>  <logP>  (485) 
2.64808

>  <HBD>  (485) 
2

>  <HBA>  (485) 
7

>  <SMILES>  (485) 
[H]c1c([H])c([H])c(N([H])c2nc(N([H])[H])nc(C([H])([H])Oc3c([H])c([H])c([H])c([H])c3C#N)n2)c([H])c1[H]

$$$$
Z89684168_pose6
     RDKit          3D

 38 40  0  0  0  0  0  0  0  0999 V2000
    9.6260   43.9870   51.1514 N   0  0  0  0  0  0  0  0  0  0  0  0
    9.7635   44.5015   52.1835 C   0  0  0  0  0  0  0  0  0  0  0  0
    9.9311   45.1844   53.4355 C   0  0  0  0  0  0  0  0  0  0  0  0
   11.1507   45.8199   53.7086 C   0  0  0  0  0  0  0  0  0  0  0  0
   11.3394   46.4900   54.9174 C   0  0  0  0  0  0  0  0  0  0  0  0
   10.3153   46.5219   55.8634 C   0  0  0  0  0  0  0  0  0  0  0  0
    9.0972   45.8942   55.6002 C   0  0  0  0  0  0  0  0  0  0  0  0
    8.8953   45.2440   54.3794 C   0  0  0  0  0  0  0  0  0  0  0  0
    7.7177   44.5979   54.1013 O   0  0  0  0  0  0  0  0  0  0  0  0
    6.6056   45.0038   54.9211 C   0  0  0  0  0  0  0  0  0  0  0  0
    5.3624   45.4286   54.1611 C   0  0  0  0  0  0  0  0  0  0  0  0
    4.3861   46.0299   54.8353 N   0  0  0  0  0  0  0  0  0  0  0  0
    3.3308   46.3685   54.1201 C   0  0  0  0  0  0  0  0  0  0  0  0
    2.2829   46.9630   54.7932 N   0  0  0  0  0  0  0  0  0  0  0  0
    3.2158   46.2014   52.8155 N   0  0  0  0  0  0  0  0  0  0  0  0
    4.2383   45.6096   52.2097 C   0  0  0  0  0  0  0  0  0  0  0  0
    4.2448   45.3779   50.8347 N   0  0  0  0  0  0  0  0  0  0  0  0
    3.8804   44.2922   50.0289 C   0  0  0  0  0  0  0  0  0  0  0  0
    3.0478   43.2507   50.4496 C   0  0  0  0  0  0  0  0  0  0  0  0
    2.7032   42.2038   49.5864 C   0  0  0  0  0  0  0  0  0  0  0  0
    3.1796   42.1867   48.2797 C   0  0  0  0  0  0  0  0  0  0  0  0
    4.0020   43.2160   47.8359 C   0  0  0  0  0  0  0  0  0  0  0  0
    4.3437   44.2591   48.7033 C   0  0  0  0  0  0  0  0  0  0  0  0
    5.3390   45.2074   52.8442 N   0  0  0  0  0  0  0  0  0  0  0  0
   11.9621   45.7900   52.9665 H   0  0  0  0  0  0  0  0  0  0  0  0
   12.2956   46.9930   55.1243 H   0  0  0  0  0  0  0  0  0  0  0  0
   10.4682   47.0434   56.8197 H   0  0  0  0  0  0  0  0  0  0  0  0
    8.2958   45.9111   56.3534 H   0  0  0  0  0  0  0  0  0  0  0  0
    6.3351   44.1579   55.5702 H   0  0  0  0  0  0  0  0  0  0  0  0
    6.9432   45.8925   55.4745 H   0  0  0  0  0  0  0  0  0  0  0  0
    1.6444   47.4048   54.1481 H   0  0  0  0  0  0  0  0  0  0  0  0
    2.6284   47.5195   55.5654 H   0  0  0  0  0  0  0  0  0  0  0  0
    4.6818   46.1579   50.3669 H   0  0  0  0  0  0  0  0  0  0  0  0
    2.6564   43.2540   51.4776 H   0  0  0  0  0  0  0  0  0  0  0  0
    2.0529   41.3915   49.9429 H   0  0  0  0  0  0  0  0  0  0  0  0
    2.9075   41.3641   47.6020 H   0  0  0  0  0  0  0  0  0  0  0  0
    4.3834   43.2102   46.8041 H   0  0  0  0  0  0  0  0  0  0  0  0
    4.9897   45.0715   48.3391 H   0  0  0  0  0  0  0  0  0  0  0  0
  1  2  3  0
  2  3  1  0
  3  4  2  0
  4  5  1  0
  5  6  2  0
  6  7  1  0
  7  8  2  0
  8  9  1  0
  9 10  1  0
 10 11  1  0
 11 12  2  0
 12 13  1  0
 13 14  1  0
 13 15  2  0
 15 16  1  0
 16 17  1  0
 17 18  1  0
 18 19  2  0
 19 20  1  0
 20 21  2  0
 21 22  1  0
 22 23  2  0
 16 24  2  0
  8  3  1  0
 24 11  1  0
 23 18  1  0
  4 25  1  0
  5 26  1  0
  6 27  1  0
  7 28  1  0
 10 29  1  0
 10 30  1  0
 14 31  1  0
 14 32  1  0
 17 33  1  0
 19 34  1  0
 20 35  1  0
 21 36  1  0
 22 37  1  0
 23 38  1  0
M  END
>  <meeko>  (486) 
{"is_sidechain": false}

>  <CID>  (486) 
Z89684168

>  <pose_index>  (486) 
6

>  <docking_score>  (486) 
-8.89

>  <rmsd_to_best_selected>  (486) 
1.9610522162968342

>  <MWT>  (486) 
318.33999999999975

>  <TPSA>  (486) 
109.74

>  <logP>  (486) 
2.64808

>  <HBD>  (486) 
2

>  <HBA>  (486) 
7

>  <SMILES>  (486) 
[H]c1c([H])c([H])c(N([H])c2nc(N([H])[H])nc(C([H])([H])Oc3c([H])c([H])c([H])c([H])c3C#N)n2)c([H])c1[H]

$$$$
Z89684168_pose10
     RDKit          3D

 38 40  0  0  0  0  0  0  0  0999 V2000
    7.7068   42.7634   52.3671 N   0  0  0  0  0  0  0  0  0  0  0  0
    8.4233   43.5125   52.8897 C   0  0  0  0  0  0  0  0  0  0  0  0
    9.3125   44.4055   53.5776 C   0  0  0  0  0  0  0  0  0  0  0  0
   10.4888   43.8944   54.1459 C   0  0  0  0  0  0  0  0  0  0  0  0
   11.3695   44.7400   54.8192 C   0  0  0  0  0  0  0  0  0  0  0  0
   11.0784   46.0979   54.9392 C   0  0  0  0  0  0  0  0  0  0  0  0
    9.9116   46.6173   54.3757 C   0  0  0  0  0  0  0  0  0  0  0  0
    9.0389   45.7774   53.6769 C   0  0  0  0  0  0  0  0  0  0  0  0
    7.8729   46.2537   53.1315 O   0  0  0  0  0  0  0  0  0  0  0  0
    6.8300   46.5165   54.0891 C   0  0  0  0  0  0  0  0  0  0  0  0
    5.4423   46.6918   53.5004 C   0  0  0  0  0  0  0  0  0  0  0  0
    4.6116   47.5486   54.0883 N   0  0  0  0  0  0  0  0  0  0  0  0
    3.4192   47.6511   53.5347 C   0  0  0  0  0  0  0  0  0  0  0  0
    2.5200   48.5052   54.1381 N   0  0  0  0  0  0  0  0  0  0  0  0
    3.0359   47.0165   52.4417 N   0  0  0  0  0  0  0  0  0  0  0  0
    3.9254   46.1904   51.9022 C   0  0  0  0  0  0  0  0  0  0  0  0
    3.6477   45.4639   50.7460 N   0  0  0  0  0  0  0  0  0  0  0  0
    3.7074   44.1055   50.4112 C   0  0  0  0  0  0  0  0  0  0  0  0
    4.8878   43.4329   50.0801 C   0  0  0  0  0  0  0  0  0  0  0  0
    4.8820   42.0668   49.7771 C   0  0  0  0  0  0  0  0  0  0  0  0
    3.6936   41.3446   49.8085 C   0  0  0  0  0  0  0  0  0  0  0  0
    2.5086   41.9901   50.1439 C   0  0  0  0  0  0  0  0  0  0  0  0
    2.5192   43.3566   50.4454 C   0  0  0  0  0  0  0  0  0  0  0  0
    5.1472   45.9979   52.3979 N   0  0  0  0  0  0  0  0  0  0  0  0
   10.7173   42.8219   54.0599 H   0  0  0  0  0  0  0  0  0  0  0  0
   12.2945   44.3354   55.2559 H   0  0  0  0  0  0  0  0  0  0  0  0
   11.7696   46.7617   55.4792 H   0  0  0  0  0  0  0  0  0  0  0  0
    9.6787   47.6872   54.4813 H   0  0  0  0  0  0  0  0  0  0  0  0
    6.7961   45.6738   54.7954 H   0  0  0  0  0  0  0  0  0  0  0  0
    7.0846   47.4762   54.5625 H   0  0  0  0  0  0  0  0  0  0  0  0
    1.9272   48.0073   54.7854 H   0  0  0  0  0  0  0  0  0  0  0  0
    2.0686   49.0917   53.4462 H   0  0  0  0  0  0  0  0  0  0  0  0
    3.4338   46.1030   49.9934 H   0  0  0  0  0  0  0  0  0  0  0  0
    5.8375   43.9874   50.0576 H   0  0  0  0  0  0  0  0  0  0  0  0
    5.8225   41.5613   49.5124 H   0  0  0  0  0  0  0  0  0  0  0  0
    3.6913   40.2708   49.5699 H   0  0  0  0  0  0  0  0  0  0  0  0
    1.5639   41.4273   50.1720 H   0  0  0  0  0  0  0  0  0  0  0  0
    1.5766   43.8553   50.7152 H   0  0  0  0  0  0  0  0  0  0  0  0
  1  2  3  0
  2  3  1  0
  3  4  2  0
  4  5  1  0
  5  6  2  0
  6  7  1  0
  7  8  2  0
  8  9  1  0
  9 10  1  0
 10 11  1  0
 11 12  2  0
 12 13  1  0
 13 14  1  0
 13 15  2  0
 15 16  1  0
 16 17  1  0
 17 18  1  0
 18 19  2  0
 19 20  1  0
 20 21  2  0
 21 22  1  0
 22 23  2  0
 16 24  2  0
  8  3  1  0
 24 11  1  0
 23 18  1  0
  4 25  1  0
  5 26  1  0
  6 27  1  0
  7 28  1  0
 10 29  1  0
 10 30  1  0
 14 31  1  0
 14 32  1  0
 17 33  1  0
 19 34  1  0
 20 35  1  0
 21 36  1  0
 22 37  1  0
 23 38  1  0
M  END
>  <meeko>  (487) 
{"is_sidechain": false}

>  <CID>  (487) 
Z89684168

>  <pose_index>  (487) 
10

>  <docking_score>  (487) 
-8.626

>  <rmsd_to_best_selected>  (487) 
1.5133959125904175

>  <MWT>  (487) 
318.33999999999975

>  <TPSA>  (487) 
109.74

>  <logP>  (487) 
2.64808

>  <HBD>  (487) 
2

>  <HBA>  (487) 
7

>  <SMILES>  (487) 
[H]c1c([H])c([H])c(N([H])c2nc(N([H])[H])nc(C([H])([H])Oc3c([H])c([H])c([H])c([H])c3C#N)n2)c([H])c1[H]

$$$$
Z91647328_pose9
     RDKit          3D

 43 45  0  0  0  0  0  0  0  0999 V2000
    1.1452   45.9074   54.9579 C   0  0  0  0  0  0  0  0  0  0  0  0
    1.7339   44.9446   53.9709 C   0  0  0  0  0  0  0  0  0  0  0  0
    3.1105   44.7170   53.9348 C   0  0  0  0  0  0  0  0  0  0  0  0
    3.6589   43.7934   53.0345 C   0  0  0  0  0  0  0  0  0  0  0  0
    2.8504   43.0750   52.1484 C   0  0  0  0  0  0  0  0  0  0  0  0
    3.3322   42.1191   51.2470 N   0  0  0  0  0  0  0  0  0  0  0  0
    4.5789   41.8717   50.6751 C   0  0  0  0  0  0  0  0  0  0  0  0
    4.8637   40.7152   50.0876 N   0  0  0  0  0  0  0  0  0  0  0  0
    6.0765   40.6047   49.5754 C   0  0  0  0  0  0  0  0  0  0  0  0
    6.3955   39.4177   48.9455 N   0  0  0  0  0  0  0  0  0  0  0  0
    6.9916   41.5556   49.5748 N   0  0  0  0  0  0  0  0  0  0  0  0
    6.6345   42.6811   50.1938 C   0  0  0  0  0  0  0  0  0  0  0  0
    7.6383   43.8120   50.2477 C   0  0  0  0  0  0  0  0  0  0  0  0
    7.9200   44.2502   51.5802 O   0  0  0  0  0  0  0  0  0  0  0  0
    7.2026   45.2912   52.0983 C   0  0  0  0  0  0  0  0  0  0  0  0
    7.0707   45.2638   53.4886 C   0  0  0  0  0  0  0  0  0  0  0  0
    6.3633   46.2631   54.1619 C   0  0  0  0  0  0  0  0  0  0  0  0
    5.7811   47.3143   53.4506 C   0  0  0  0  0  0  0  0  0  0  0  0
    4.9879   48.3706   54.1606 C   0  0  0  0  0  0  0  0  0  0  0  0
    5.8991   47.3325   52.0559 C   0  0  0  0  0  0  0  0  0  0  0  0
    6.6101   46.3299   51.3837 C   0  0  0  0  0  0  0  0  0  0  0  0
    5.4337   42.8906   50.7434 N   0  0  0  0  0  0  0  0  0  0  0  0
    1.4662   43.2967   52.2126 C   0  0  0  0  0  0  0  0  0  0  0  0
    0.9109   44.2153   53.1100 C   0  0  0  0  0  0  0  0  0  0  0  0
    1.3955   46.9364   54.6604 H   0  0  0  0  0  0  0  0  0  0  0  0
    0.0519   45.7877   54.9795 H   0  0  0  0  0  0  0  0  0  0  0  0
    1.5561   45.7045   55.9579 H   0  0  0  0  0  0  0  0  0  0  0  0
    3.7716   45.2680   54.6199 H   0  0  0  0  0  0  0  0  0  0  0  0
    4.7467   43.6304   53.0249 H   0  0  0  0  0  0  0  0  0  0  0  0
    2.6413   41.5264   50.8120 H   0  0  0  0  0  0  0  0  0  0  0  0
    5.5603   38.8800   48.7640 H   0  0  0  0  0  0  0  0  0  0  0  0
    7.0241   39.5864   48.1738 H   0  0  0  0  0  0  0  0  0  0  0  0
    8.5763   43.4695   49.7863 H   0  0  0  0  0  0  0  0  0  0  0  0
    7.2007   44.6647   49.7079 H   0  0  0  0  0  0  0  0  0  0  0  0
    7.5299   44.4445   54.0612 H   0  0  0  0  0  0  0  0  0  0  0  0
    6.2646   46.2215   55.2566 H   0  0  0  0  0  0  0  0  0  0  0  0
    5.1446   49.3409   53.6666 H   0  0  0  0  0  0  0  0  0  0  0  0
    3.9195   48.1108   54.1279 H   0  0  0  0  0  0  0  0  0  0  0  0
    5.3177   48.4349   55.2080 H   0  0  0  0  0  0  0  0  0  0  0  0
    5.4281   48.1434   51.4810 H   0  0  0  0  0  0  0  0  0  0  0  0
    6.7009   46.3630   50.2880 H   0  0  0  0  0  0  0  0  0  0  0  0
    0.8013   42.7342   51.5407 H   0  0  0  0  0  0  0  0  0  0  0  0
   -0.1787   44.3637   53.1375 H   0  0  0  0  0  0  0  0  0  0  0  0
  1  2  1  0
  2  3  2  0
  3  4  1  0
  4  5  2  0
  5  6  1  0
  6  7  1  0
  7  8  2  0
  8  9  1  0
  9 10  1  0
  9 11  2  0
 11 12  1  0
 12 13  1  0
 13 14  1  0
 14 15  1  0
 15 16  2  0
 16 17  1  0
 17 18  2  0
 18 19  1  0
 18 20  1  0
 20 21  2  0
 12 22  2  0
  5 23  1  0
 23 24  2  0
 24  2  1  0
 22  7  1  0
 21 15  1  0
  1 25  1  0
  1 26  1  0
  1 27  1  0
  3 28  1  0
  4 29  1  0
  6 30  1  0
 10 31  1  0
 10 32  1  0
 13 33  1  0
 13 34  1  0
 16 35  1  0
 17 36  1  0
 19 37  1  0
 19 38  1  0
 19 39  1  0
 20 40  1  0
 21 41  1  0
 23 42  1  0
 24 43  1  0
M  END
>  <meeko>  (488) 
{"is_sidechain": false}

>  <CID>  (488) 
Z91647328

>  <pose_index>  (488) 
9

>  <docking_score>  (488) 
-8.945

>  <rmsd_to_best_selected>  (488) 
1.420865177342393

>  <MWT>  (488) 
321.3839999999997

>  <TPSA>  (488) 
85.95

>  <logP>  (488) 
3.3932400000000023

>  <HBD>  (488) 
2

>  <HBA>  (488) 
6

>  <SMILES>  (488) 
[H]c1c([H])c(C([H])([H])[H])c([H])c([H])c1OC([H])([H])c1nc(N([H])[H])nc(N([H])c2c([H])c([H])c(C([H])([H])[H])c([H])c2[H])n1

$$$$
Z91647328_pose3
     RDKit          3D

 43 45  0  0  0  0  0  0  0  0999 V2000
    0.9087   45.8584   54.7299 C   0  0  0  0  0  0  0  0  0  0  0  0
    1.4453   44.9906   53.6315 C   0  0  0  0  0  0  0  0  0  0  0  0
    1.6831   45.5191   52.3614 C   0  0  0  0  0  0  0  0  0  0  0  0
    2.2155   44.7173   51.3424 C   0  0  0  0  0  0  0  0  0  0  0  0
    2.5224   43.3712   51.5626 C   0  0  0  0  0  0  0  0  0  0  0  0
    3.0827   42.5271   50.5971 N   0  0  0  0  0  0  0  0  0  0  0  0
    4.3888   42.2087   50.2322 C   0  0  0  0  0  0  0  0  0  0  0  0
    4.6655   41.5720   49.1001 N   0  0  0  0  0  0  0  0  0  0  0  0
    5.9427   41.3346   48.8619 C   0  0  0  0  0  0  0  0  0  0  0  0
    6.2612   40.6860   47.6855 N   0  0  0  0  0  0  0  0  0  0  0  0
    6.9441   41.7098   49.6357 N   0  0  0  0  0  0  0  0  0  0  0  0
    6.5846   42.3315   50.7589 C   0  0  0  0  0  0  0  0  0  0  0  0
    7.6768   42.7778   51.7051 C   0  0  0  0  0  0  0  0  0  0  0  0
    7.1813   43.1956   52.9801 O   0  0  0  0  0  0  0  0  0  0  0  0
    6.9554   44.5253   53.1975 C   0  0  0  0  0  0  0  0  0  0  0  0
    5.6064   44.8697   53.3056 C   0  0  0  0  0  0  0  0  0  0  0  0
    5.2196   46.1937   53.5282 C   0  0  0  0  0  0  0  0  0  0  0  0
    6.1833   47.1967   53.6572 C   0  0  0  0  0  0  0  0  0  0  0  0
    5.7764   48.6260   53.8583 C   0  0  0  0  0  0  0  0  0  0  0  0
    7.5350   46.8537   53.5329 C   0  0  0  0  0  0  0  0  0  0  0  0
    7.9185   45.5253   53.3101 C   0  0  0  0  0  0  0  0  0  0  0  0
    5.3217   42.6174   51.0905 N   0  0  0  0  0  0  0  0  0  0  0  0
    2.3008   42.8607   52.8520 C   0  0  0  0  0  0  0  0  0  0  0  0
    1.7724   43.6546   53.8743 C   0  0  0  0  0  0  0  0  0  0  0  0
   -0.0189   46.3444   54.3932 H   0  0  0  0  0  0  0  0  0  0  0  0
    0.6985   45.2408   55.6156 H   0  0  0  0  0  0  0  0  0  0  0  0
    1.6528   46.6267   54.9868 H   0  0  0  0  0  0  0  0  0  0  0  0
    1.4506   46.5749   52.1584 H   0  0  0  0  0  0  0  0  0  0  0  0
    2.3954   45.1558   50.3498 H   0  0  0  0  0  0  0  0  0  0  0  0
    2.4412   42.1219   49.9313 H   0  0  0  0  0  0  0  0  0  0  0  0
    7.0027   41.1727   47.2033 H   0  0  0  0  0  0  0  0  0  0  0  0
    6.3774   39.6958   47.8490 H   0  0  0  0  0  0  0  0  0  0  0  0
    8.3716   41.9388   51.8577 H   0  0  0  0  0  0  0  0  0  0  0  0
    8.1723   43.6461   51.2462 H   0  0  0  0  0  0  0  0  0  0  0  0
    4.8378   44.0880   53.2143 H   0  0  0  0  0  0  0  0  0  0  0  0
    4.1518   46.4473   53.6022 H   0  0  0  0  0  0  0  0  0  0  0  0
    5.1168   48.9387   53.0354 H   0  0  0  0  0  0  0  0  0  0  0  0
    5.2415   48.7239   54.8145 H   0  0  0  0  0  0  0  0  0  0  0  0
    6.6725   49.2638   53.8725 H   0  0  0  0  0  0  0  0  0  0  0  0
    8.3042   47.6362   53.6112 H   0  0  0  0  0  0  0  0  0  0  0  0
    8.9851   45.2705   53.2236 H   0  0  0  0  0  0  0  0  0  0  0  0
    2.5491   41.8100   53.0628 H   0  0  0  0  0  0  0  0  0  0  0  0
    1.6137   43.2251   54.8745 H   0  0  0  0  0  0  0  0  0  0  0  0
  1  2  1  0
  2  3  2  0
  3  4  1  0
  4  5  2  0
  5  6  1  0
  6  7  1  0
  7  8  2  0
  8  9  1  0
  9 10  1  0
  9 11  2  0
 11 12  1  0
 12 13  1  0
 13 14  1  0
 14 15  1  0
 15 16  2  0
 16 17  1  0
 17 18  2  0
 18 19  1  0
 18 20  1  0
 20 21  2  0
 12 22  2  0
  5 23  1  0
 23 24  2  0
 24  2  1  0
 22  7  1  0
 21 15  1  0
  1 25  1  0
  1 26  1  0
  1 27  1  0
  3 28  1  0
  4 29  1  0
  6 30  1  0
 10 31  1  0
 10 32  1  0
 13 33  1  0
 13 34  1  0
 16 35  1  0
 17 36  1  0
 19 37  1  0
 19 38  1  0
 19 39  1  0
 20 40  1  0
 21 41  1  0
 23 42  1  0
 24 43  1  0
M  END
>  <meeko>  (489) 
{"is_sidechain": false}

>  <CID>  (489) 
Z91647328

>  <pose_index>  (489) 
3

>  <docking_score>  (489) 
-9.155

>  <rmsd_to_best_selected>  (489) 
0.0

>  <MWT>  (489) 
321.3839999999997

>  <TPSA>  (489) 
85.95

>  <logP>  (489) 
3.3932400000000023

>  <HBD>  (489) 
2

>  <HBA>  (489) 
6

>  <SMILES>  (489) 
[H]c1c([H])c(C([H])([H])[H])c([H])c([H])c1OC([H])([H])c1nc(N([H])[H])nc(N([H])c2c([H])c([H])c(C([H])([H])[H])c([H])c2[H])n1

$$$$
Z91647328_pose5
     RDKit          3D

 43 45  0  0  0  0  0  0  0  0999 V2000
    0.2403   45.9493   53.7747 C   0  0  0  0  0  0  0  0  0  0  0  0
    1.0335   44.8009   53.2291 C   0  0  0  0  0  0  0  0  0  0  0  0
    0.4322   43.8513   52.4007 C   0  0  0  0  0  0  0  0  0  0  0  0
    1.1813   42.7942   51.8642 C   0  0  0  0  0  0  0  0  0  0  0  0
    2.5445   42.6578   52.1389 C   0  0  0  0  0  0  0  0  0  0  0  0
    3.3528   41.6438   51.6105 N   0  0  0  0  0  0  0  0  0  0  0  0
    4.5419   41.6353   50.8849 C   0  0  0  0  0  0  0  0  0  0  0  0
    4.7056   40.8639   49.8160 N   0  0  0  0  0  0  0  0  0  0  0  0
    5.8757   40.9511   49.2078 C   0  0  0  0  0  0  0  0  0  0  0  0
    6.0687   40.1705   48.0861 N   0  0  0  0  0  0  0  0  0  0  0  0
    6.8570   41.7601   49.5593 N   0  0  0  0  0  0  0  0  0  0  0  0
    6.6199   42.4931   50.6479 C   0  0  0  0  0  0  0  0  0  0  0  0
    7.7069   43.4332   51.1216 C   0  0  0  0  0  0  0  0  0  0  0  0
    7.6035   43.7588   52.5102 O   0  0  0  0  0  0  0  0  0  0  0  0
    7.3447   45.0516   52.8691 C   0  0  0  0  0  0  0  0  0  0  0  0
    6.3688   45.1908   53.8581 C   0  0  0  0  0  0  0  0  0  0  0  0
    5.9975   46.4533   54.3261 C   0  0  0  0  0  0  0  0  0  0  0  0
    6.6087   47.6015   53.8165 C   0  0  0  0  0  0  0  0  0  0  0  0
    6.1896   48.9623   54.2863 C   0  0  0  0  0  0  0  0  0  0  0  0
    7.5746   47.4622   52.8131 C   0  0  0  0  0  0  0  0  0  0  0  0
    7.9454   46.1946   52.3457 C   0  0  0  0  0  0  0  0  0  0  0  0
    5.4730   42.4760   51.3324 N   0  0  0  0  0  0  0  0  0  0  0  0
    3.1409   43.6341   52.9523 C   0  0  0  0  0  0  0  0  0  0  0  0
    2.4016   44.6922   53.4906 C   0  0  0  0  0  0  0  0  0  0  0  0
    0.2671   46.7856   53.0605 H   0  0  0  0  0  0  0  0  0  0  0  0
   -0.8019   45.6338   53.9308 H   0  0  0  0  0  0  0  0  0  0  0  0
    0.6733   46.2716   54.7331 H   0  0  0  0  0  0  0  0  0  0  0  0
   -0.6395   43.9333   52.1667 H   0  0  0  0  0  0  0  0  0  0  0  0
    0.6860   42.0578   51.2143 H   0  0  0  0  0  0  0  0  0  0  0  0
    2.9778   40.7072   51.6498 H   0  0  0  0  0  0  0  0  0  0  0  0
    5.3125   39.5074   47.9824 H   0  0  0  0  0  0  0  0  0  0  0  0
    6.2993   40.7474   47.2897 H   0  0  0  0  0  0  0  0  0  0  0  0
    8.6825   42.9565   50.9459 H   0  0  0  0  0  0  0  0  0  0  0  0
    7.5977   44.3707   50.5567 H   0  0  0  0  0  0  0  0  0  0  0  0
    5.8860   44.2942   54.2741 H   0  0  0  0  0  0  0  0  0  0  0  0
    5.2204   46.5439   55.0994 H   0  0  0  0  0  0  0  0  0  0  0  0
    6.4899   49.7154   53.5429 H   0  0  0  0  0  0  0  0  0  0  0  0
    5.0970   48.9864   54.4119 H   0  0  0  0  0  0  0  0  0  0  0  0
    6.6743   49.1833   55.2487 H   0  0  0  0  0  0  0  0  0  0  0  0
    8.0483   48.3587   52.3865 H   0  0  0  0  0  0  0  0  0  0  0  0
    8.7129   46.1014   51.5633 H   0  0  0  0  0  0  0  0  0  0  0  0
    4.2166   43.5652   53.1718 H   0  0  0  0  0  0  0  0  0  0  0  0
    2.8994   45.4422   54.1227 H   0  0  0  0  0  0  0  0  0  0  0  0
  1  2  1  0
  2  3  2  0
  3  4  1  0
  4  5  2  0
  5  6  1  0
  6  7  1  0
  7  8  2  0
  8  9  1  0
  9 10  1  0
  9 11  2  0
 11 12  1  0
 12 13  1  0
 13 14  1  0
 14 15  1  0
 15 16  2  0
 16 17  1  0
 17 18  2  0
 18 19  1  0
 18 20  1  0
 20 21  2  0
 12 22  2  0
  5 23  1  0
 23 24  2  0
 24  2  1  0
 22  7  1  0
 21 15  1  0
  1 25  1  0
  1 26  1  0
  1 27  1  0
  3 28  1  0
  4 29  1  0
  6 30  1  0
 10 31  1  0
 10 32  1  0
 13 33  1  0
 13 34  1  0
 16 35  1  0
 17 36  1  0
 19 37  1  0
 19 38  1  0
 19 39  1  0
 20 40  1  0
 21 41  1  0
 23 42  1  0
 24 43  1  0
M  END
>  <meeko>  (490) 
{"is_sidechain": false}

>  <CID>  (490) 
Z91647328

>  <pose_index>  (490) 
5

>  <docking_score>  (490) 
-9.027

>  <rmsd_to_best_selected>  (490) 
1.382610648757678

>  <MWT>  (490) 
321.3839999999997

>  <TPSA>  (490) 
85.95

>  <logP>  (490) 
3.3932400000000023

>  <HBD>  (490) 
2

>  <HBA>  (490) 
6

>  <SMILES>  (490) 
[H]c1c([H])c(C([H])([H])[H])c([H])c([H])c1OC([H])([H])c1nc(N([H])[H])nc(N([H])c2c([H])c([H])c(C([H])([H])[H])c([H])c2[H])n1

$$$$
Z91647328_pose6
     RDKit          3D

 43 45  0  0  0  0  0  0  0  0999 V2000
    0.6387   45.7788   54.6330 C   0  0  0  0  0  0  0  0  0  0  0  0
    1.2668   44.9870   53.5257 C   0  0  0  0  0  0  0  0  0  0  0  0
    1.8877   45.6330   52.4544 C   0  0  0  0  0  0  0  0  0  0  0  0
    2.5025   44.8948   51.4348 C   0  0  0  0  0  0  0  0  0  0  0  0
    2.5149   43.4969   51.4555 C   0  0  0  0  0  0  0  0  0  0  0  0
    3.1381   42.7046   50.4842 N   0  0  0  0  0  0  0  0  0  0  0  0
    4.4260   42.1985   50.3306 C   0  0  0  0  0  0  0  0  0  0  0  0
    4.6476   40.9270   50.0177 N   0  0  0  0  0  0  0  0  0  0  0  0
    5.9132   40.5683   49.8907 C   0  0  0  0  0  0  0  0  0  0  0  0
    6.1723   39.2559   49.5528 N   0  0  0  0  0  0  0  0  0  0  0  0
    6.9486   41.3784   50.0162 N   0  0  0  0  0  0  0  0  0  0  0  0
    6.6448   42.6341   50.3425 C   0  0  0  0  0  0  0  0  0  0  0  0
    7.7816   43.6168   50.5192 C   0  0  0  0  0  0  0  0  0  0  0  0
    8.0448   43.9335   51.8889 O   0  0  0  0  0  0  0  0  0  0  0  0
    7.3813   44.9796   52.4649 C   0  0  0  0  0  0  0  0  0  0  0  0
    8.0918   45.6216   53.4811 C   0  0  0  0  0  0  0  0  0  0  0  0
    7.5410   46.7108   54.1626 C   0  0  0  0  0  0  0  0  0  0  0  0
    6.2697   47.1801   53.8293 C   0  0  0  0  0  0  0  0  0  0  0  0
    5.6559   48.3234   54.5808 C   0  0  0  0  0  0  0  0  0  0  0  0
    5.5507   46.5257   52.8221 C   0  0  0  0  0  0  0  0  0  0  0  0
    6.1057   45.4355   52.1401 C   0  0  0  0  0  0  0  0  0  0  0  0
    5.3994   43.0930   50.4933 N   0  0  0  0  0  0  0  0  0  0  0  0
    1.9087   42.8624   52.5507 C   0  0  0  0  0  0  0  0  0  0  0  0
    1.2936   43.5919   53.5742 C   0  0  0  0  0  0  0  0  0  0  0  0
    0.1000   45.0993   55.3098 H   0  0  0  0  0  0  0  0  0  0  0  0
    1.4219   46.3100   55.1939 H   0  0  0  0  0  0  0  0  0  0  0  0
   -0.0665   46.5082   54.2079 H   0  0  0  0  0  0  0  0  0  0  0  0
    1.8940   46.7321   52.4108 H   0  0  0  0  0  0  0  0  0  0  0  0
    2.9853   45.4257   50.6011 H   0  0  0  0  0  0  0  0  0  0  0  0
    2.6053   42.5245   49.6467 H   0  0  0  0  0  0  0  0  0  0  0  0
    5.5554   38.9541   48.8121 H   0  0  0  0  0  0  0  0  0  0  0  0
    7.1643   39.1142   49.4251 H   0  0  0  0  0  0  0  0  0  0  0  0
    8.6913   43.1816   50.0799 H   0  0  0  0  0  0  0  0  0  0  0  0
    7.4870   44.5509   50.0184 H   0  0  0  0  0  0  0  0  0  0  0  0
    9.0977   45.2659   53.7487 H   0  0  0  0  0  0  0  0  0  0  0  0
    8.1122   47.2002   54.9652 H   0  0  0  0  0  0  0  0  0  0  0  0
    4.9260   47.9354   55.3066 H   0  0  0  0  0  0  0  0  0  0  0  0
    6.4433   48.8772   55.1131 H   0  0  0  0  0  0  0  0  0  0  0  0
    5.1481   48.9963   53.8741 H   0  0  0  0  0  0  0  0  0  0  0  0
    4.5390   46.8715   52.5636 H   0  0  0  0  0  0  0  0  0  0  0  0
    5.5319   44.9373   51.3448 H   0  0  0  0  0  0  0  0  0  0  0  0
    1.9172   41.7638   52.6059 H   0  0  0  0  0  0  0  0  0  0  0  0
    0.8294   43.0641   54.4203 H   0  0  0  0  0  0  0  0  0  0  0  0
  1  2  1  0
  2  3  2  0
  3  4  1  0
  4  5  2  0
  5  6  1  0
  6  7  1  0
  7  8  2  0
  8  9  1  0
  9 10  1  0
  9 11  2  0
 11 12  1  0
 12 13  1  0
 13 14  1  0
 14 15  1  0
 15 16  2  0
 16 17  1  0
 17 18  2  0
 18 19  1  0
 18 20  1  0
 20 21  2  0
 12 22  2  0
  5 23  1  0
 23 24  2  0
 24  2  1  0
 22  7  1  0
 21 15  1  0
  1 25  1  0
  1 26  1  0
  1 27  1  0
  3 28  1  0
  4 29  1  0
  6 30  1  0
 10 31  1  0
 10 32  1  0
 13 33  1  0
 13 34  1  0
 16 35  1  0
 17 36  1  0
 19 37  1  0
 19 38  1  0
 19 39  1  0
 20 40  1  0
 21 41  1  0
 23 42  1  0
 24 43  1  0
M  END
>  <meeko>  (491) 
{"is_sidechain": false}

>  <CID>  (491) 
Z91647328

>  <pose_index>  (491) 
6

>  <docking_score>  (491) 
-8.991

>  <rmsd_to_best_selected>  (491) 
1.1113134139229357

>  <MWT>  (491) 
321.3839999999997

>  <TPSA>  (491) 
85.95

>  <logP>  (491) 
3.3932400000000023

>  <HBD>  (491) 
2

>  <HBA>  (491) 
6

>  <SMILES>  (491) 
[H]c1c([H])c(C([H])([H])[H])c([H])c([H])c1OC([H])([H])c1nc(N([H])[H])nc(N([H])c2c([H])c([H])c(C([H])([H])[H])c([H])c2[H])n1

$$$$
Z91647328_pose7
     RDKit          3D

 43 45  0  0  0  0  0  0  0  0999 V2000
    1.4159   46.0514   54.8711 C   0  0  0  0  0  0  0  0  0  0  0  0
    1.8803   44.9660   53.9461 C   0  0  0  0  0  0  0  0  0  0  0  0
    0.9738   44.3073   53.1135 C   0  0  0  0  0  0  0  0  0  0  0  0
    1.4111   43.3149   52.2253 C   0  0  0  0  0  0  0  0  0  0  0  0
    2.7589   42.9558   52.1436 C   0  0  0  0  0  0  0  0  0  0  0  0
    3.2627   41.9966   51.2577 N   0  0  0  0  0  0  0  0  0  0  0  0
    4.5108   41.7742   50.6810 C   0  0  0  0  0  0  0  0  0  0  0  0
    4.7548   40.7091   49.9251 N   0  0  0  0  0  0  0  0  0  0  0  0
    5.9744   40.6148   49.4274 C   0  0  0  0  0  0  0  0  0  0  0  0
    6.2522   39.5248   48.6275 N   0  0  0  0  0  0  0  0  0  0  0  0
    6.9350   41.5036   49.5942 N   0  0  0  0  0  0  0  0  0  0  0  0
    6.6172   42.5367   50.3749 C   0  0  0  0  0  0  0  0  0  0  0  0
    7.6741   43.5899   50.6255 C   0  0  0  0  0  0  0  0  0  0  0  0
    7.7246   44.0223   51.9886 O   0  0  0  0  0  0  0  0  0  0  0  0
    7.0470   45.1518   52.3489 C   0  0  0  0  0  0  0  0  0  0  0  0
    6.9485   45.3493   53.7283 C   0  0  0  0  0  0  0  0  0  0  0  0
    6.2833   46.4627   54.2475 C   0  0  0  0  0  0  0  0  0  0  0  0
    5.7107   47.4041   53.3896 C   0  0  0  0  0  0  0  0  0  0  0  0
    4.9613   48.5816   53.9391 C   0  0  0  0  0  0  0  0  0  0  0  0
    5.7935   47.1975   52.0078 C   0  0  0  0  0  0  0  0  0  0  0  0
    6.4625   46.0813   51.4901 C   0  0  0  0  0  0  0  0  0  0  0  0
    5.4128   42.7223   50.9247 N   0  0  0  0  0  0  0  0  0  0  0  0
    3.6626   43.6442   52.9694 C   0  0  0  0  0  0  0  0  0  0  0  0
    3.2339   44.6370   53.8569 C   0  0  0  0  0  0  0  0  0  0  0  0
    1.7178   47.0298   54.4690 H   0  0  0  0  0  0  0  0  0  0  0  0
    0.3201   46.0137   54.9597 H   0  0  0  0  0  0  0  0  0  0  0  0
    1.8691   45.9068   55.8628 H   0  0  0  0  0  0  0  0  0  0  0  0
   -0.0937   44.5694   53.1549 H   0  0  0  0  0  0  0  0  0  0  0  0
    0.6784   42.8086   51.5797 H   0  0  0  0  0  0  0  0  0  0  0  0
    2.5856   41.3737   50.8416 H   0  0  0  0  0  0  0  0  0  0  0  0
    5.5702   39.4482   47.8855 H   0  0  0  0  0  0  0  0  0  0  0  0
    7.2289   39.5156   48.3701 H   0  0  0  0  0  0  0  0  0  0  0  0
    8.6550   43.1728   50.3541 H   0  0  0  0  0  0  0  0  0  0  0  0
    7.4150   44.4662   50.0132 H   0  0  0  0  0  0  0  0  0  0  0  0
    7.4006   44.6184   54.4148 H   0  0  0  0  0  0  0  0  0  0  0  0
    6.2102   46.5984   55.3366 H   0  0  0  0  0  0  0  0  0  0  0  0
    5.1293   49.4566   53.2941 H   0  0  0  0  0  0  0  0  0  0  0  0
    3.8864   48.3500   53.9703 H   0  0  0  0  0  0  0  0  0  0  0  0
    5.3186   48.8016   54.9559 H   0  0  0  0  0  0  0  0  0  0  0  0
    5.3280   47.9196   51.3209 H   0  0  0  0  0  0  0  0  0  0  0  0
    6.5270   45.9375   50.4015 H   0  0  0  0  0  0  0  0  0  0  0  0
    4.7331   43.3968   52.9171 H   0  0  0  0  0  0  0  0  0  0  0  0
    3.9672   45.1609   54.4876 H   0  0  0  0  0  0  0  0  0  0  0  0
  1  2  1  0
  2  3  2  0
  3  4  1  0
  4  5  2  0
  5  6  1  0
  6  7  1  0
  7  8  2  0
  8  9  1  0
  9 10  1  0
  9 11  2  0
 11 12  1  0
 12 13  1  0
 13 14  1  0
 14 15  1  0
 15 16  2  0
 16 17  1  0
 17 18  2  0
 18 19  1  0
 18 20  1  0
 20 21  2  0
 12 22  2  0
  5 23  1  0
 23 24  2  0
 24  2  1  0
 22  7  1  0
 21 15  1  0
  1 25  1  0
  1 26  1  0
  1 27  1  0
  3 28  1  0
  4 29  1  0
  6 30  1  0
 10 31  1  0
 10 32  1  0
 13 33  1  0
 13 34  1  0
 16 35  1  0
 17 36  1  0
 19 37  1  0
 19 38  1  0
 19 39  1  0
 20 40  1  0
 21 41  1  0
 23 42  1  0
 24 43  1  0
M  END
>  <meeko>  (492) 
{"is_sidechain": false}

>  <CID>  (492) 
Z91647328

>  <pose_index>  (492) 
7

>  <docking_score>  (492) 
-8.972

>  <rmsd_to_best_selected>  (492) 
1.3623188828721162

>  <MWT>  (492) 
321.3839999999997

>  <TPSA>  (492) 
85.95

>  <logP>  (492) 
3.3932400000000023

>  <HBD>  (492) 
2

>  <HBA>  (492) 
6

>  <SMILES>  (492) 
[H]c1c([H])c(C([H])([H])[H])c([H])c([H])c1OC([H])([H])c1nc(N([H])[H])nc(N([H])c2c([H])c([H])c(C([H])([H])[H])c([H])c2[H])n1

$$$$
Z91647328_pose10
     RDKit          3D

 43 45  0  0  0  0  0  0  0  0999 V2000
    1.2637   46.4264   54.5026 C   0  0  0  0  0  0  0  0  0  0  0  0
    1.9432   45.2716   53.8293 C   0  0  0  0  0  0  0  0  0  0  0  0
    2.6624   44.3374   54.5774 C   0  0  0  0  0  0  0  0  0  0  0  0
    3.2715   43.2406   53.9537 C   0  0  0  0  0  0  0  0  0  0  0  0
    3.1797   43.0462   52.5725 C   0  0  0  0  0  0  0  0  0  0  0  0
    3.7391   41.9561   51.8944 N   0  0  0  0  0  0  0  0  0  0  0  0
    4.8403   41.8020   51.0557 C   0  0  0  0  0  0  0  0  0  0  0  0
    4.8949   40.8408   50.1412 N   0  0  0  0  0  0  0  0  0  0  0  0
    5.9887   40.8035   49.3991 C   0  0  0  0  0  0  0  0  0  0  0  0
    6.0673   39.8216   48.4321 N   0  0  0  0  0  0  0  0  0  0  0  0
    6.9910   41.6585   49.4783 N   0  0  0  0  0  0  0  0  0  0  0  0
    6.8662   42.5850   50.4277 C   0  0  0  0  0  0  0  0  0  0  0  0
    7.9838   43.5916   50.5892 C   0  0  0  0  0  0  0  0  0  0  0  0
    7.5489   44.9467   50.4339 O   0  0  0  0  0  0  0  0  0  0  0  0
    6.9244   45.5624   51.4800 C   0  0  0  0  0  0  0  0  0  0  0  0
    5.7064   46.1617   51.1501 C   0  0  0  0  0  0  0  0  0  0  0  0
    4.9515   46.8305   52.1181 C   0  0  0  0  0  0  0  0  0  0  0  0
    5.4021   46.9023   53.4369 C   0  0  0  0  0  0  0  0  0  0  0  0
    4.6173   47.6505   54.4734 C   0  0  0  0  0  0  0  0  0  0  0  0
    6.6305   46.3163   53.7636 C   0  0  0  0  0  0  0  0  0  0  0  0
    7.3845   45.6453   52.7923 C   0  0  0  0  0  0  0  0  0  0  0  0
    5.8023   42.7070   51.2274 N   0  0  0  0  0  0  0  0  0  0  0  0
    2.4322   43.9799   51.8370 C   0  0  0  0  0  0  0  0  0  0  0  0
    1.8201   45.0774   52.4520 C   0  0  0  0  0  0  0  0  0  0  0  0
    0.4481   46.0518   55.1386 H   0  0  0  0  0  0  0  0  0  0  0  0
    1.9921   46.9696   55.1226 H   0  0  0  0  0  0  0  0  0  0  0  0
    0.8524   47.1049   53.7407 H   0  0  0  0  0  0  0  0  0  0  0  0
    2.7516   44.4637   55.6665 H   0  0  0  0  0  0  0  0  0  0  0  0
    3.8334   42.5177   54.5634 H   0  0  0  0  0  0  0  0  0  0  0  0
    3.2042   41.1009   51.9048 H   0  0  0  0  0  0  0  0  0  0  0  0
    5.4332   39.0648   48.6439 H   0  0  0  0  0  0  0  0  0  0  0  0
    6.0173   40.2308   47.5092 H   0  0  0  0  0  0  0  0  0  0  0  0
    8.4159   43.4761   51.5941 H   0  0  0  0  0  0  0  0  0  0  0  0
    8.7205   43.3920   49.7971 H   0  0  0  0  0  0  0  0  0  0  0  0
    5.3367   46.1067   50.1155 H   0  0  0  0  0  0  0  0  0  0  0  0
    3.9978   47.3024   51.8389 H   0  0  0  0  0  0  0  0  0  0  0  0
    3.9982   46.9437   55.0453 H   0  0  0  0  0  0  0  0  0  0  0  0
    5.3092   48.1668   55.1551 H   0  0  0  0  0  0  0  0  0  0  0  0
    3.9692   48.3896   53.9798 H   0  0  0  0  0  0  0  0  0  0  0  0
    7.0081   46.3836   54.7946 H   0  0  0  0  0  0  0  0  0  0  0  0
    8.3436   45.1819   53.0669 H   0  0  0  0  0  0  0  0  0  0  0  0
    2.3254   43.8452   50.7505 H   0  0  0  0  0  0  0  0  0  0  0  0
    1.2394   45.7902   51.8481 H   0  0  0  0  0  0  0  0  0  0  0  0
  1  2  1  0
  2  3  2  0
  3  4  1  0
  4  5  2  0
  5  6  1  0
  6  7  1  0
  7  8  2  0
  8  9  1  0
  9 10  1  0
  9 11  2  0
 11 12  1  0
 12 13  1  0
 13 14  1  0
 14 15  1  0
 15 16  2  0
 16 17  1  0
 17 18  2  0
 18 19  1  0
 18 20  1  0
 20 21  2  0
 12 22  2  0
  5 23  1  0
 23 24  2  0
 24  2  1  0
 22  7  1  0
 21 15  1  0
  1 25  1  0
  1 26  1  0
  1 27  1  0
  3 28  1  0
  4 29  1  0
  6 30  1  0
 10 31  1  0
 10 32  1  0
 13 33  1  0
 13 34  1  0
 16 35  1  0
 17 36  1  0
 19 37  1  0
 19 38  1  0
 19 39  1  0
 20 40  1  0
 21 41  1  0
 23 42  1  0
 24 43  1  0
M  END
>  <meeko>  (493) 
{"is_sidechain": false}

>  <CID>  (493) 
Z91647328

>  <pose_index>  (493) 
10

>  <docking_score>  (493) 
-8.847

>  <rmsd_to_best_selected>  (493) 
1.4655541966108658

>  <MWT>  (493) 
321.3839999999997

>  <TPSA>  (493) 
85.95

>  <logP>  (493) 
3.3932400000000023

>  <HBD>  (493) 
2

>  <HBA>  (493) 
6

>  <SMILES>  (493) 
[H]c1c([H])c(C([H])([H])[H])c([H])c([H])c1OC([H])([H])c1nc(N([H])[H])nc(N([H])c2c([H])c([H])c(C([H])([H])[H])c([H])c2[H])n1

$$$$
Z91661383_pose1
     RDKit          3D

 44 46  0  0  0  0  0  0  0  0999 V2000
   10.2380   47.5360   55.0810 C   0  0  0  0  0  0  0  0  0  0  0  0
    9.3530   47.0100   53.9900 C   0  0  0  0  0  0  0  0  0  0  0  0
    9.8630   46.7800   52.7100 C   0  0  0  0  0  0  0  0  0  0  0  0
    9.0320   46.3150   51.6830 C   0  0  0  0  0  0  0  0  0  0  0  0
    7.6730   46.0740   51.9010 C   0  0  0  0  0  0  0  0  0  0  0  0
    6.7910   45.6120   50.9170 N   0  0  0  0  0  0  0  0  0  0  0  0
    6.0270   44.4580   50.7610 C   0  0  0  0  0  0  0  0  0  0  0  0
    6.6420   43.4600   50.1330 N   0  0  0  0  0  0  0  0  0  0  0  0
    5.9310   42.3590   49.9520 C   0  0  0  0  0  0  0  0  0  0  0  0
    6.5450   41.3040   49.3090 N   0  0  0  0  0  0  0  0  0  0  0  0
    4.6910   42.1750   50.3680 N   0  0  0  0  0  0  0  0  0  0  0  0
    4.1490   43.2240   50.9880 C   0  0  0  0  0  0  0  0  0  0  0  0
    2.7110   43.1100   51.4360 C   0  0  0  0  0  0  0  0  0  0  0  0
    2.6670   42.6700   52.8080 O   0  0  0  0  0  0  0  0  0  0  0  0
    1.6760   43.3030   53.5130 C   0  0  0  0  0  0  0  0  0  0  0  0
    0.3860   42.7560   53.4890 C   0  0  0  0  0  0  0  0  0  0  0  0
   -0.6540   43.3750   54.1840 C   0  0  0  0  0  0  0  0  0  0  0  0
   -0.4120   44.5490   54.8900 C   0  0  0  0  0  0  0  0  0  0  0  0
    0.8660   45.1140   54.8900 C   0  0  0  0  0  0  0  0  0  0  0  0
    1.9220   44.5060   54.1900 C   0  0  0  0  0  0  0  0  0  0  0  0
    3.2450   45.1970   54.2310 C   0  0  0  0  0  0  0  0  0  0  0  0
    4.3520   44.4560   54.5280 N   0  0  0  0  0  0  0  0  0  0  0  0
    3.3540   46.3930   53.9810 O   0  0  0  0  0  0  0  0  0  0  0  0
    4.7790   44.3790   51.2100 N   0  0  0  0  0  0  0  0  0  0  0  0
    7.1690   46.3280   53.1860 C   0  0  0  0  0  0  0  0  0  0  0  0
    7.9930   46.7920   54.2180 C   0  0  0  0  0  0  0  0  0  0  0  0
    9.8059   47.2792   56.0594 H   0  0  0  0  0  0  0  0  0  0  0  0
   11.2374   47.0852   54.9918 H   0  0  0  0  0  0  0  0  0  0  0  0
   10.3196   48.6293   54.9918 H   0  0  0  0  0  0  0  0  0  0  0  0
   10.9279   46.9660   52.5067 H   0  0  0  0  0  0  0  0  0  0  0  0
    9.4577   46.1359   50.6847 H   0  0  0  0  0  0  0  0  0  0  0  0
    6.5880   46.2480   50.1600 H   0  0  0  0  0  0  0  0  0  0  0  0
    5.8700   40.7500   48.8020 H   0  0  0  0  0  0  0  0  0  0  0  0
    7.3610   41.6170   48.8020 H   0  0  0  0  0  0  0  0  0  0  0  0
    2.2216   44.0914   51.3501 H   0  0  0  0  0  0  0  0  0  0  0  0
    2.1865   42.3810   50.8009 H   0  0  0  0  0  0  0  0  0  0  0  0
    0.1923   41.8348   52.9199 H   0  0  0  0  0  0  0  0  0  0  0  0
   -1.6624   42.9357   54.1736 H   0  0  0  0  0  0  0  0  0  0  0  0
   -1.2270   45.0327   55.4484 H   0  0  0  0  0  0  0  0  0  0  0  0
    1.0477   46.0463   55.4448 H   0  0  0  0  0  0  0  0  0  0  0  0
    4.3090   43.4440   54.5560 H   0  0  0  0  0  0  0  0  0  0  0  0
    5.2510   44.9020   54.4180 H   0  0  0  0  0  0  0  0  0  0  0  0
    6.1009   46.1584   53.3869 H   0  0  0  0  0  0  0  0  0  0  0  0
    7.5669   46.9858   55.2134 H   0  0  0  0  0  0  0  0  0  0  0  0
  1  2  1  0
  2  3  2  0
  3  4  1  0
  4  5  2  0
  5  6  1  0
  6  7  1  0
  7  8  2  0
  8  9  1  0
  9 10  1  0
  9 11  2  0
 11 12  1  0
 12 13  1  0
 13 14  1  0
 14 15  1  0
 15 16  2  0
 16 17  1  0
 17 18  2  0
 18 19  1  0
 19 20  2  0
 20 21  1  0
 21 22  1  0
 21 23  2  0
 12 24  2  0
  5 25  1  0
 25 26  2  0
 26  2  1  0
 24  7  1  0
 20 15  1  0
  1 27  1  0
  1 28  1  0
  1 29  1  0
  3 30  1  0
  4 31  1  0
  6 32  1  0
 10 33  1  0
 10 34  1  0
 13 35  1  0
 13 36  1  0
 16 37  1  0
 17 38  1  0
 18 39  1  0
 19 40  1  0
 22 41  1  0
 22 42  1  0
 25 43  1  0
 26 44  1  0
M  END
>  <meeko>  (494) 
{"is_sidechain": false}

>  <CID>  (494) 
Z91661383

>  <pose_index>  (494) 
1

>  <docking_score>  (494) 
-9.134

>  <rmsd_to_best_selected>  (494) 
0.0

>  <MWT>  (494) 
350.3819999999997

>  <TPSA>  (494) 
129.04000000000002

>  <logP>  (494) 
2.18372

>  <HBD>  (494) 
3

>  <HBA>  (494) 
7

>  <SMILES>  (494) 
[H]c1c([H])c([H])c(C(=O)N([H])[H])c(OC([H])([H])c2nc(N([H])[H])nc(N([H])c3c([H])c([H])c(C([H])([H])[H])c([H])c3[H])n2)c1[H]

$$$$
Z91661383_pose2
     RDKit          3D

 44 46  0  0  0  0  0  0  0  0999 V2000
   10.5344   47.2308   54.9486 C   0  0  0  0  0  0  0  0  0  0  0  0
    9.5215   46.7655   53.9442 C   0  0  0  0  0  0  0  0  0  0  0  0
    9.0964   47.6153   52.9200 C   0  0  0  0  0  0  0  0  0  0  0  0
    8.1310   47.1937   51.9971 C   0  0  0  0  0  0  0  0  0  0  0  0
    7.5576   45.9216   52.0752 C   0  0  0  0  0  0  0  0  0  0  0  0
    6.5879   45.4421   51.1868 N   0  0  0  0  0  0  0  0  0  0  0  0
    5.9316   44.2244   51.0270 C   0  0  0  0  0  0  0  0  0  0  0  0
    6.4103   43.4549   50.0528 N   0  0  0  0  0  0  0  0  0  0  0  0
    5.7924   42.3009   49.8660 C   0  0  0  0  0  0  0  0  0  0  0  0
    6.2697   41.4780   48.8661 N   0  0  0  0  0  0  0  0  0  0  0  0
    4.7746   41.8559   50.5805 N   0  0  0  0  0  0  0  0  0  0  0  0
    4.3584   42.6870   51.5365 C   0  0  0  0  0  0  0  0  0  0  0  0
    3.1569   42.2741   52.3531 C   0  0  0  0  0  0  0  0  0  0  0  0
    3.1181   43.0417   53.5730 O   0  0  0  0  0  0  0  0  0  0  0  0
    1.8997   43.6432   53.7560 C   0  0  0  0  0  0  0  0  0  0  0  0
    0.7482   42.9594   53.3419 C   0  0  0  0  0  0  0  0  0  0  0  0
   -0.5107   43.5408   53.4996 C   0  0  0  0  0  0  0  0  0  0  0  0
   -0.6215   44.8118   54.0548 C   0  0  0  0  0  0  0  0  0  0  0  0
    0.5270   45.5090   54.4403 C   0  0  0  0  0  0  0  0  0  0  0  0
    1.8018   44.9394   54.2825 C   0  0  0  0  0  0  0  0  0  0  0  0
    2.9694   45.7707   54.7022 C   0  0  0  0  0  0  0  0  0  0  0  0
    4.1083   45.7096   53.9515 N   0  0  0  0  0  0  0  0  0  0  0  0
    2.9134   46.5131   55.6768 O   0  0  0  0  0  0  0  0  0  0  0  0
    4.9081   43.8743   51.7970 N   0  0  0  0  0  0  0  0  0  0  0  0
    7.9793   45.0856   53.1210 C   0  0  0  0  0  0  0  0  0  0  0  0
    8.9442   45.4993   54.0465 C   0  0  0  0  0  0  0  0  0  0  0  0
   10.3483   48.2866   55.1949 H   0  0  0  0  0  0  0  0  0  0  0  0
   10.4527   46.6216   55.8609 H   0  0  0  0  0  0  0  0  0  0  0  0
   11.5447   47.1253   54.5265 H   0  0  0  0  0  0  0  0  0  0  0  0
    9.5242   48.6254   52.8377 H   0  0  0  0  0  0  0  0  0  0  0  0
    7.8178   47.8776   51.1945 H   0  0  0  0  0  0  0  0  0  0  0  0
    6.2061   46.1124   50.5335 H   0  0  0  0  0  0  0  0  0  0  0  0
    5.5626   40.8195   48.5730 H   0  0  0  0  0  0  0  0  0  0  0  0
    6.7276   42.0169   48.1448 H   0  0  0  0  0  0  0  0  0  0  0  0
    2.2396   42.4582   51.7747 H   0  0  0  0  0  0  0  0  0  0  0  0
    3.2288   41.2036   52.5956 H   0  0  0  0  0  0  0  0  0  0  0  0
    0.8372   41.9601   52.8907 H   0  0  0  0  0  0  0  0  0  0  0  0
   -1.4131   42.9956   53.1857 H   0  0  0  0  0  0  0  0  0  0  0  0
   -1.6131   45.2680   54.1905 H   0  0  0  0  0  0  0  0  0  0  0  0
    0.4316   46.5160   54.8725 H   0  0  0  0  0  0  0  0  0  0  0  0
    4.1130   45.2496   53.0487 H   0  0  0  0  0  0  0  0  0  0  0  0
    4.8374   46.3750   54.1624 H   0  0  0  0  0  0  0  0  0  0  0  0
    7.5409   44.0811   53.2153 H   0  0  0  0  0  0  0  0  0  0  0  0
    9.2490   44.8229   54.8587 H   0  0  0  0  0  0  0  0  0  0  0  0
  1  2  1  0
  2  3  2  0
  3  4  1  0
  4  5  2  0
  5  6  1  0
  6  7  1  0
  7  8  2  0
  8  9  1  0
  9 10  1  0
  9 11  2  0
 11 12  1  0
 12 13  1  0
 13 14  1  0
 14 15  1  0
 15 16  2  0
 16 17  1  0
 17 18  2  0
 18 19  1  0
 19 20  2  0
 20 21  1  0
 21 22  1  0
 21 23  2  0
 12 24  2  0
  5 25  1  0
 25 26  2  0
 26  2  1  0
 24  7  1  0
 20 15  1  0
  1 27  1  0
  1 28  1  0
  1 29  1  0
  3 30  1  0
  4 31  1  0
  6 32  1  0
 10 33  1  0
 10 34  1  0
 13 35  1  0
 13 36  1  0
 16 37  1  0
 17 38  1  0
 18 39  1  0
 19 40  1  0
 22 41  1  0
 22 42  1  0
 25 43  1  0
 26 44  1  0
M  END
>  <meeko>  (495) 
{"is_sidechain": false}

>  <CID>  (495) 
Z91661383

>  <pose_index>  (495) 
2

>  <docking_score>  (495) 
-9.101

>  <rmsd_to_best_selected>  (495) 
1.2559524858790454

>  <MWT>  (495) 
350.3819999999997

>  <TPSA>  (495) 
129.04000000000002

>  <logP>  (495) 
2.18372

>  <HBD>  (495) 
3

>  <HBA>  (495) 
7

>  <SMILES>  (495) 
[H]c1c([H])c([H])c(C(=O)N([H])[H])c(OC([H])([H])c2nc(N([H])[H])nc(N([H])c3c([H])c([H])c(C([H])([H])[H])c([H])c3[H])n2)c1[H]

$$$$
Z91661383_pose3
     RDKit          3D

 44 46  0  0  0  0  0  0  0  0999 V2000
   10.8849   48.1744   53.2837 C   0  0  0  0  0  0  0  0  0  0  0  0
    9.8533   47.0855   53.2511 C   0  0  0  0  0  0  0  0  0  0  0  0
    8.5986   47.2805   53.8357 C   0  0  0  0  0  0  0  0  0  0  0  0
    7.6435   46.2553   53.8319 C   0  0  0  0  0  0  0  0  0  0  0  0
    7.9139   45.0124   53.2551 C   0  0  0  0  0  0  0  0  0  0  0  0
    7.0042   43.9487   53.2207 N   0  0  0  0  0  0  0  0  0  0  0  0
    6.1254   43.4512   52.2610 C   0  0  0  0  0  0  0  0  0  0  0  0
    6.6403   42.5233   51.4588 N   0  0  0  0  0  0  0  0  0  0  0  0
    5.8328   42.0486   50.5243 C   0  0  0  0  0  0  0  0  0  0  0  0
    6.3382   41.0807   49.6798 N   0  0  0  0  0  0  0  0  0  0  0  0
    4.5719   42.4013   50.3559 N   0  0  0  0  0  0  0  0  0  0  0  0
    4.1342   43.3335   51.2016 C   0  0  0  0  0  0  0  0  0  0  0  0
    2.7200   43.8329   51.0284 C   0  0  0  0  0  0  0  0  0  0  0  0
    2.4628   44.8882   51.9761 O   0  0  0  0  0  0  0  0  0  0  0  0
    1.3875   44.6017   52.7771 C   0  0  0  0  0  0  0  0  0  0  0  0
    0.1953   44.1831   52.1705 C   0  0  0  0  0  0  0  0  0  0  0  0
   -0.9261   43.8917   52.9477 C   0  0  0  0  0  0  0  0  0  0  0  0
   -0.8657   44.0342   54.3314 C   0  0  0  0  0  0  0  0  0  0  0  0
    0.3122   44.4816   54.9359 C   0  0  0  0  0  0  0  0  0  0  0  0
    1.4479   44.7850   54.1663 C   0  0  0  0  0  0  0  0  0  0  0  0
    2.6500   45.2783   54.9018 C   0  0  0  0  0  0  0  0  0  0  0  0
    3.7153   45.7219   54.1726 N   0  0  0  0  0  0  0  0  0  0  0  0
    2.6852   45.3125   56.1266 O   0  0  0  0  0  0  0  0  0  0  0  0
    4.8724   43.8816   52.1693 N   0  0  0  0  0  0  0  0  0  0  0  0
    9.1848   44.8233   52.6886 C   0  0  0  0  0  0  0  0  0  0  0  0
   10.1441   45.8427   52.6883 C   0  0  0  0  0  0  0  0  0  0  0  0
   11.8324   47.7942   52.8743 H   0  0  0  0  0  0  0  0  0  0  0  0
   10.5391   49.0253   52.6784 H   0  0  0  0  0  0  0  0  0  0  0  0
   11.0395   48.5020   54.3223 H   0  0  0  0  0  0  0  0  0  0  0  0
    8.3591   48.2471   54.3028 H   0  0  0  0  0  0  0  0  0  0  0  0
    6.6605   46.4330   54.2926 H   0  0  0  0  0  0  0  0  0  0  0  0
    6.9886   43.3430   54.0296 H   0  0  0  0  0  0  0  0  0  0  0  0
    7.2951   41.2854   49.4309 H   0  0  0  0  0  0  0  0  0  0  0  0
    6.1372   40.1566   50.0319 H   0  0  0  0  0  0  0  0  0  0  0  0
    2.5899   44.2183   50.0064 H   0  0  0  0  0  0  0  0  0  0  0  0
    2.0157   43.0058   51.2012 H   0  0  0  0  0  0  0  0  0  0  0  0
    0.1435   44.0838   51.0762 H   0  0  0  0  0  0  0  0  0  0  0  0
   -1.8555   43.5503   52.4685 H   0  0  0  0  0  0  0  0  0  0  0  0
   -1.7444   43.7949   54.9483 H   0  0  0  0  0  0  0  0  0  0  0  0
    0.3508   44.5978   56.0291 H   0  0  0  0  0  0  0  0  0  0  0  0
    3.6369   45.8722   53.1729 H   0  0  0  0  0  0  0  0  0  0  0  0
    4.4629   46.1786   54.6753 H   0  0  0  0  0  0  0  0  0  0  0  0
    9.4321   43.8523   52.2349 H   0  0  0  0  0  0  0  0  0  0  0  0
   11.1331   45.6627   52.2417 H   0  0  0  0  0  0  0  0  0  0  0  0
  1  2  1  0
  2  3  2  0
  3  4  1  0
  4  5  2  0
  5  6  1  0
  6  7  1  0
  7  8  2  0
  8  9  1  0
  9 10  1  0
  9 11  2  0
 11 12  1  0
 12 13  1  0
 13 14  1  0
 14 15  1  0
 15 16  2  0
 16 17  1  0
 17 18  2  0
 18 19  1  0
 19 20  2  0
 20 21  1  0
 21 22  1  0
 21 23  2  0
 12 24  2  0
  5 25  1  0
 25 26  2  0
 26  2  1  0
 24  7  1  0
 20 15  1  0
  1 27  1  0
  1 28  1  0
  1 29  1  0
  3 30  1  0
  4 31  1  0
  6 32  1  0
 10 33  1  0
 10 34  1  0
 13 35  1  0
 13 36  1  0
 16 37  1  0
 17 38  1  0
 18 39  1  0
 19 40  1  0
 22 41  1  0
 22 42  1  0
 25 43  1  0
 26 44  1  0
M  END
>  <meeko>  (496) 
{"is_sidechain": false}

>  <CID>  (496) 
Z91661383

>  <pose_index>  (496) 
3

>  <docking_score>  (496) 
-8.912

>  <rmsd_to_best_selected>  (496) 
1.6828495349411758

>  <MWT>  (496) 
350.3819999999997

>  <TPSA>  (496) 
129.04000000000002

>  <logP>  (496) 
2.18372

>  <HBD>  (496) 
3

>  <HBA>  (496) 
7

>  <SMILES>  (496) 
[H]c1c([H])c([H])c(C(=O)N([H])[H])c(OC([H])([H])c2nc(N([H])[H])nc(N([H])c3c([H])c([H])c(C([H])([H])[H])c([H])c3[H])n2)c1[H]

$$$$
Z91661383_pose5
     RDKit          3D

 44 46  0  0  0  0  0  0  0  0999 V2000
   10.4651   48.5176   53.0385 C   0  0  0  0  0  0  0  0  0  0  0  0
    9.6350   47.2687   53.0305 C   0  0  0  0  0  0  0  0  0  0  0  0
    8.3112   47.2948   53.4757 C   0  0  0  0  0  0  0  0  0  0  0  0
    7.5418   46.1237   53.4963 C   0  0  0  0  0  0  0  0  0  0  0  0
    8.0724   44.8985   53.0829 C   0  0  0  0  0  0  0  0  0  0  0  0
    7.3575   43.6945   53.0816 N   0  0  0  0  0  0  0  0  0  0  0  0
    6.3470   43.1648   52.2835 C   0  0  0  0  0  0  0  0  0  0  0  0
    6.7308   42.8030   51.0622 N   0  0  0  0  0  0  0  0  0  0  0  0
    5.7857   42.3147   50.2753 C   0  0  0  0  0  0  0  0  0  0  0  0
    6.1546   41.9258   49.0039 N   0  0  0  0  0  0  0  0  0  0  0  0
    4.5223   42.1391   50.6202 N   0  0  0  0  0  0  0  0  0  0  0  0
    4.2226   42.5258   51.8594 C   0  0  0  0  0  0  0  0  0  0  0  0
    2.7826   42.4151   52.3027 C   0  0  0  0  0  0  0  0  0  0  0  0
    2.6710   42.8212   53.6807 O   0  0  0  0  0  0  0  0  0  0  0  0
    1.5656   43.6051   53.8921 C   0  0  0  0  0  0  0  0  0  0  0  0
    0.2979   43.0167   53.7763 C   0  0  0  0  0  0  0  0  0  0  0  0
   -0.8526   43.7813   53.9710 C   0  0  0  0  0  0  0  0  0  0  0  0
   -0.7417   45.1377   54.2646 C   0  0  0  0  0  0  0  0  0  0  0  0
    0.5192   45.7330   54.3502 C   0  0  0  0  0  0  0  0  0  0  0  0
    1.6873   44.9784   54.1501 C   0  0  0  0  0  0  0  0  0  0  0  0
    2.9868   45.7084   54.2378 C   0  0  0  0  0  0  0  0  0  0  0  0
    3.7287   45.8457   53.0991 N   0  0  0  0  0  0  0  0  0  0  0  0
    3.3790   46.1987   55.2904 O   0  0  0  0  0  0  0  0  0  0  0  0
    5.0999   43.0378   52.7243 N   0  0  0  0  0  0  0  0  0  0  0  0
    9.4099   44.8833   52.6570 C   0  0  0  0  0  0  0  0  0  0  0  0
   10.1838   46.0493   52.6331 C   0  0  0  0  0  0  0  0  0  0  0  0
    9.8065   49.3960   52.9707 H   0  0  0  0  0  0  0  0  0  0  0  0
   11.0459   48.5659   53.9715 H   0  0  0  0  0  0  0  0  0  0  0  0
   11.1518   48.5070   52.1793 H   0  0  0  0  0  0  0  0  0  0  0  0
    7.8685   48.2435   53.8132 H   0  0  0  0  0  0  0  0  0  0  0  0
    6.4995   46.1696   53.8447 H   0  0  0  0  0  0  0  0  0  0  0  0
    7.6452   43.0008   53.7563 H   0  0  0  0  0  0  0  0  0  0  0  0
    5.7196   41.0487   48.7564 H   0  0  0  0  0  0  0  0  0  0  0  0
    6.0602   42.6911   48.3521 H   0  0  0  0  0  0  0  0  0  0  0  0
    2.1553   43.0666   51.6766 H   0  0  0  0  0  0  0  0  0  0  0  0
    2.4467   41.3728   52.1995 H   0  0  0  0  0  0  0  0  0  0  0  0
    0.2104   41.9480   53.5310 H   0  0  0  0  0  0  0  0  0  0  0  0
   -1.8452   43.3136   53.8928 H   0  0  0  0  0  0  0  0  0  0  0  0
   -1.6469   45.7407   54.4291 H   0  0  0  0  0  0  0  0  0  0  0  0
    0.5986   46.8064   54.5771 H   0  0  0  0  0  0  0  0  0  0  0  0
    3.3402   45.6115   52.1928 H   0  0  0  0  0  0  0  0  0  0  0  0
    4.5322   46.4560   53.1417 H   0  0  0  0  0  0  0  0  0  0  0  0
    9.8603   43.9329   52.3347 H   0  0  0  0  0  0  0  0  0  0  0  0
   11.2308   46.0039   52.2990 H   0  0  0  0  0  0  0  0  0  0  0  0
  1  2  1  0
  2  3  2  0
  3  4  1  0
  4  5  2  0
  5  6  1  0
  6  7  1  0
  7  8  2  0
  8  9  1  0
  9 10  1  0
  9 11  2  0
 11 12  1  0
 12 13  1  0
 13 14  1  0
 14 15  1  0
 15 16  2  0
 16 17  1  0
 17 18  2  0
 18 19  1  0
 19 20  2  0
 20 21  1  0
 21 22  1  0
 21 23  2  0
 12 24  2  0
  5 25  1  0
 25 26  2  0
 26  2  1  0
 24  7  1  0
 20 15  1  0
  1 27  1  0
  1 28  1  0
  1 29  1  0
  3 30  1  0
  4 31  1  0
  6 32  1  0
 10 33  1  0
 10 34  1  0
 13 35  1  0
 13 36  1  0
 16 37  1  0
 17 38  1  0
 18 39  1  0
 19 40  1  0
 22 41  1  0
 22 42  1  0
 25 43  1  0
 26 44  1  0
M  END
>  <meeko>  (497) 
{"is_sidechain": false}

>  <CID>  (497) 
Z91661383

>  <pose_index>  (497) 
5

>  <docking_score>  (497) 
-8.633

>  <rmsd_to_best_selected>  (497) 
1.543220706335941

>  <MWT>  (497) 
350.3819999999997

>  <TPSA>  (497) 
129.04000000000002

>  <logP>  (497) 
2.18372

>  <HBD>  (497) 
3

>  <HBA>  (497) 
7

>  <SMILES>  (497) 
[H]c1c([H])c([H])c(C(=O)N([H])[H])c(OC([H])([H])c2nc(N([H])[H])nc(N([H])c3c([H])c([H])c(C([H])([H])[H])c([H])c3[H])n2)c1[H]

$$$$
Z91661383_pose6
     RDKit          3D

 44 46  0  0  0  0  0  0  0  0999 V2000
    9.3969   48.6330   53.8747 C   0  0  0  0  0  0  0  0  0  0  0  0
    8.8538   47.2737   53.5487 C   0  0  0  0  0  0  0  0  0  0  0  0
    7.5143   46.9654   53.8007 C   0  0  0  0  0  0  0  0  0  0  0  0
    7.0109   45.6873   53.5217 C   0  0  0  0  0  0  0  0  0  0  0  0
    7.8275   44.6848   52.9942 C   0  0  0  0  0  0  0  0  0  0  0  0
    7.3863   43.3895   52.6967 N   0  0  0  0  0  0  0  0  0  0  0  0
    6.3170   42.8688   51.9720 C   0  0  0  0  0  0  0  0  0  0  0  0
    6.6425   42.3495   50.7909 N   0  0  0  0  0  0  0  0  0  0  0  0
    5.6417   41.8661   50.0724 C   0  0  0  0  0  0  0  0  0  0  0  0
    5.9485   41.3166   48.8449 N   0  0  0  0  0  0  0  0  0  0  0  0
    4.3763   41.8370   50.4494 N   0  0  0  0  0  0  0  0  0  0  0  0
    4.1373   42.3759   51.6457 C   0  0  0  0  0  0  0  0  0  0  0  0
    2.7039   42.4368   52.1165 C   0  0  0  0  0  0  0  0  0  0  0  0
    2.1834   43.7639   51.9029 O   0  0  0  0  0  0  0  0  0  0  0  0
    1.6694   44.3000   53.0558 C   0  0  0  0  0  0  0  0  0  0  0  0
    0.5233   43.7153   53.6111 C   0  0  0  0  0  0  0  0  0  0  0  0
   -0.0381   44.2366   54.7771 C   0  0  0  0  0  0  0  0  0  0  0  0
    0.5327   45.3533   55.3819 C   0  0  0  0  0  0  0  0  0  0  0  0
    1.6566   45.9571   54.8118 C   0  0  0  0  0  0  0  0  0  0  0  0
    2.2296   45.4483   53.6348 C   0  0  0  0  0  0  0  0  0  0  0  0
    3.4140   46.1761   53.0902 C   0  0  0  0  0  0  0  0  0  0  0  0
    3.9355   45.7603   51.8994 N   0  0  0  0  0  0  0  0  0  0  0  0
    3.9014   47.1386   53.6747 O   0  0  0  0  0  0  0  0  0  0  0  0
    5.0748   42.8968   52.4399 N   0  0  0  0  0  0  0  0  0  0  0  0
    9.1770   45.0015   52.7647 C   0  0  0  0  0  0  0  0  0  0  0  0
    9.6865   46.2748   53.0394 C   0  0  0  0  0  0  0  0  0  0  0  0
    9.6458   48.6814   54.9451 H   0  0  0  0  0  0  0  0  0  0  0  0
   10.3027   48.8185   53.2788 H   0  0  0  0  0  0  0  0  0  0  0  0
    8.6405   49.3962   53.6393 H   0  0  0  0  0  0  0  0  0  0  0  0
    6.8486   47.7331   54.2220 H   0  0  0  0  0  0  0  0  0  0  0  0
    5.9515   45.4697   53.7224 H   0  0  0  0  0  0  0  0  0  0  0  0
    7.9771   42.6306   53.0066 H   0  0  0  0  0  0  0  0  0  0  0  0
    6.7797   41.7401   48.4582 H   0  0  0  0  0  0  0  0  0  0  0  0
    5.9183   40.3083   48.8846 H   0  0  0  0  0  0  0  0  0  0  0  0
    2.1011   41.7112   51.5507 H   0  0  0  0  0  0  0  0  0  0  0  0
    2.6596   42.1940   53.1884 H   0  0  0  0  0  0  0  0  0  0  0  0
    0.0643   42.8415   53.1256 H   0  0  0  0  0  0  0  0  0  0  0  0
   -0.9297   43.7664   55.2176 H   0  0  0  0  0  0  0  0  0  0  0  0
    0.0993   45.7599   56.3076 H   0  0  0  0  0  0  0  0  0  0  0  0
    2.0985   46.8429   55.2914 H   0  0  0  0  0  0  0  0  0  0  0  0
    3.4409   45.0937   51.3179 H   0  0  0  0  0  0  0  0  0  0  0  0
    4.6441   46.3425   51.4763 H   0  0  0  0  0  0  0  0  0  0  0  0
    9.8484   44.2301   52.3595 H   0  0  0  0  0  0  0  0  0  0  0  0
   10.7489   46.4907   52.8533 H   0  0  0  0  0  0  0  0  0  0  0  0
  1  2  1  0
  2  3  2  0
  3  4  1  0
  4  5  2  0
  5  6  1  0
  6  7  1  0
  7  8  2  0
  8  9  1  0
  9 10  1  0
  9 11  2  0
 11 12  1  0
 12 13  1  0
 13 14  1  0
 14 15  1  0
 15 16  2  0
 16 17  1  0
 17 18  2  0
 18 19  1  0
 19 20  2  0
 20 21  1  0
 21 22  1  0
 21 23  2  0
 12 24  2  0
  5 25  1  0
 25 26  2  0
 26  2  1  0
 24  7  1  0
 20 15  1  0
  1 27  1  0
  1 28  1  0
  1 29  1  0
  3 30  1  0
  4 31  1  0
  6 32  1  0
 10 33  1  0
 10 34  1  0
 13 35  1  0
 13 36  1  0
 16 37  1  0
 17 38  1  0
 18 39  1  0
 19 40  1  0
 22 41  1  0
 22 42  1  0
 25 43  1  0
 26 44  1  0
M  END
>  <meeko>  (498) 
{"is_sidechain": false}

>  <CID>  (498) 
Z91661383

>  <pose_index>  (498) 
6

>  <docking_score>  (498) 
-8.593

>  <rmsd_to_best_selected>  (498) 
1.644094614973627

>  <MWT>  (498) 
350.3819999999997

>  <TPSA>  (498) 
129.04000000000002

>  <logP>  (498) 
2.18372

>  <HBD>  (498) 
3

>  <HBA>  (498) 
7

>  <SMILES>  (498) 
[H]c1c([H])c([H])c(C(=O)N([H])[H])c(OC([H])([H])c2nc(N([H])[H])nc(N([H])c3c([H])c([H])c(C([H])([H])[H])c([H])c3[H])n2)c1[H]

$$$$
Z91661383_pose10
     RDKit          3D

 44 46  0  0  0  0  0  0  0  0999 V2000
   10.3825   46.8074   55.0695 C   0  0  0  0  0  0  0  0  0  0  0  0
    9.5423   45.9484   54.1722 C   0  0  0  0  0  0  0  0  0  0  0  0
    9.3552   46.2939   52.8317 C   0  0  0  0  0  0  0  0  0  0  0  0
    8.5480   45.5086   51.9982 C   0  0  0  0  0  0  0  0  0  0  0  0
    7.9018   44.3664   52.4784 C   0  0  0  0  0  0  0  0  0  0  0  0
    7.0824   43.5425   51.6983 N   0  0  0  0  0  0  0  0  0  0  0  0
    5.8980   43.7358   50.9920 C   0  0  0  0  0  0  0  0  0  0  0  0
    5.8329   43.1019   49.8240 N   0  0  0  0  0  0  0  0  0  0  0  0
    4.7258   43.2863   49.1234 C   0  0  0  0  0  0  0  0  0  0  0  0
    4.6276   42.6372   47.9094 N   0  0  0  0  0  0  0  0  0  0  0  0
    3.6932   44.0141   49.5058 N   0  0  0  0  0  0  0  0  0  0  0  0
    3.8400   44.6146   50.6876 C   0  0  0  0  0  0  0  0  0  0  0  0
    2.7249   45.5163   51.1615 C   0  0  0  0  0  0  0  0  0  0  0  0
    2.9007   45.8022   52.5642 O   0  0  0  0  0  0  0  0  0  0  0  0
    1.9779   45.1458   53.3362 C   0  0  0  0  0  0  0  0  0  0  0  0
    0.6713   45.0133   52.8473 C   0  0  0  0  0  0  0  0  0  0  0  0
   -0.3025   44.3629   53.6062 C   0  0  0  0  0  0  0  0  0  0  0  0
    0.0219   43.8579   54.8623 C   0  0  0  0  0  0  0  0  0  0  0  0
    1.3165   44.0158   55.3657 C   0  0  0  0  0  0  0  0  0  0  0  0
    2.3050   44.6744   54.6165 C   0  0  0  0  0  0  0  0  0  0  0  0
    3.6511   44.8146   55.2484 C   0  0  0  0  0  0  0  0  0  0  0  0
    4.7526   44.7319   54.4462 N   0  0  0  0  0  0  0  0  0  0  0  0
    3.7777   45.0239   56.4503 O   0  0  0  0  0  0  0  0  0  0  0  0
    4.9189   44.4993   51.4636 N   0  0  0  0  0  0  0  0  0  0  0  0
    8.0828   44.0411   53.8322 C   0  0  0  0  0  0  0  0  0  0  0  0
    8.8881   44.8202   54.6710 C   0  0  0  0  0  0  0  0  0  0  0  0
   10.9202   47.5528   54.4651 H   0  0  0  0  0  0  0  0  0  0  0  0
    9.7357   47.3217   55.7956 H   0  0  0  0  0  0  0  0  0  0  0  0
   11.1077   46.1779   55.6058 H   0  0  0  0  0  0  0  0  0  0  0  0
    9.8462   47.1910   52.4266 H   0  0  0  0  0  0  0  0  0  0  0  0
    8.4204   45.7971   50.9444 H   0  0  0  0  0  0  0  0  0  0  0  0
    7.4161   42.6028   51.5342 H   0  0  0  0  0  0  0  0  0  0  0  0
    3.7203   42.2064   47.8044 H   0  0  0  0  0  0  0  0  0  0  0  0
    4.9494   43.2292   47.1578 H   0  0  0  0  0  0  0  0  0  0  0  0
    2.7457   46.4561   50.5903 H   0  0  0  0  0  0  0  0  0  0  0  0
    1.7579   45.0150   51.0080 H   0  0  0  0  0  0  0  0  0  0  0  0
    0.4119   45.4241   51.8604 H   0  0  0  0  0  0  0  0  0  0  0  0
   -1.3236   44.2495   53.2131 H   0  0  0  0  0  0  0  0  0  0  0  0
   -0.7401   43.3346   55.4585 H   0  0  0  0  0  0  0  0  0  0  0  0
    1.5640   43.6192   56.3615 H   0  0  0  0  0  0  0  0  0  0  0  0
    4.6650   44.7433   53.4372 H   0  0  0  0  0  0  0  0  0  0  0  0
    5.6440   44.9644   54.8607 H   0  0  0  0  0  0  0  0  0  0  0  0
    7.5799   43.1533   54.2433 H   0  0  0  0  0  0  0  0  0  0  0  0
    9.0062   44.5423   55.7287 H   0  0  0  0  0  0  0  0  0  0  0  0
  1  2  1  0
  2  3  2  0
  3  4  1  0
  4  5  2  0
  5  6  1  0
  6  7  1  0
  7  8  2  0
  8  9  1  0
  9 10  1  0
  9 11  2  0
 11 12  1  0
 12 13  1  0
 13 14  1  0
 14 15  1  0
 15 16  2  0
 16 17  1  0
 17 18  2  0
 18 19  1  0
 19 20  2  0
 20 21  1  0
 21 22  1  0
 21 23  2  0
 12 24  2  0
  5 25  1  0
 25 26  2  0
 26  2  1  0
 24  7  1  0
 20 15  1  0
  1 27  1  0
  1 28  1  0
  1 29  1  0
  3 30  1  0
  4 31  1  0
  6 32  1  0
 10 33  1  0
 10 34  1  0
 13 35  1  0
 13 36  1  0
 16 37  1  0
 17 38  1  0
 18 39  1  0
 19 40  1  0
 22 41  1  0
 22 42  1  0
 25 43  1  0
 26 44  1  0
M  END
>  <meeko>  (499) 
{"is_sidechain": false}

>  <CID>  (499) 
Z91661383

>  <pose_index>  (499) 
10

>  <docking_score>  (499) 
-8.166

>  <rmsd_to_best_selected>  (499) 
1.6366540907787233

>  <MWT>  (499) 
350.3819999999997

>  <TPSA>  (499) 
129.04000000000002

>  <logP>  (499) 
2.18372

>  <HBD>  (499) 
3

>  <HBA>  (499) 
7

>  <SMILES>  (499) 
[H]c1c([H])c([H])c(C(=O)N([H])[H])c(OC([H])([H])c2nc(N([H])[H])nc(N([H])c3c([H])c([H])c(C([H])([H])[H])c([H])c3[H])n2)c1[H]

$$$$
Z94803042_pose1
     RDKit          3D

 42 45  0  0  0  0  0  0  0  0999 V2000
   -1.9650   44.4160   54.7140 N   0  0  0  0  0  0  0  0  0  0  0  0
   -0.8500   43.7900   54.2260 C   0  0  0  0  0  0  0  0  0  0  0  0
   -0.8940   42.6170   53.8820 O   0  0  0  0  0  0  0  0  0  0  0  0
    0.4100   44.5790   54.1770 C   0  0  0  0  0  0  0  0  0  0  0  0
    1.2490   44.5660   55.2920 C   0  0  0  0  0  0  0  0  0  0  0  0
    2.4440   45.2970   55.2900 C   0  0  0  0  0  0  0  0  0  0  0  0
    2.8360   46.0440   54.1750 C   0  0  0  0  0  0  0  0  0  0  0  0
    4.0070   46.8070   54.1170 N   0  0  0  0  0  0  0  0  0  0  0  0
    5.2830   46.5810   53.6070 C   0  0  0  0  0  0  0  0  0  0  0  0
    5.4930   45.7880   52.5560 N   0  0  0  0  0  0  0  0  0  0  0  0
    6.7630   45.6260   52.1250 C   0  0  0  0  0  0  0  0  0  0  0  0
    6.8720   44.7590   50.9410 C   0  0  0  0  0  0  0  0  0  0  0  0
    7.9060   44.9280   50.0030 C   0  0  0  0  0  0  0  0  0  0  0  0
    7.9990   44.1030   48.8800 C   0  0  0  0  0  0  0  0  0  0  0  0
    7.0540   43.1000   48.6720 C   0  0  0  0  0  0  0  0  0  0  0  0
    6.0130   42.9270   49.5820 C   0  0  0  0  0  0  0  0  0  0  0  0
    5.9210   43.7530   50.7040 C   0  0  0  0  0  0  0  0  0  0  0  0
    7.8600   46.2270   52.7540 C   0  0  0  0  0  0  0  0  0  0  0  0
    9.2240   46.0700   52.3880 C   0  0  0  0  0  0  0  0  0  0  0  0
   10.2310   46.7240   53.0910 C   0  0  0  0  0  0  0  0  0  0  0  0
    9.8930   47.5350   54.1650 C   0  0  0  0  0  0  0  0  0  0  0  0
    8.5510   47.6800   54.5280 C   0  0  0  0  0  0  0  0  0  0  0  0
    7.5280   47.0350   53.8440 C   0  0  0  0  0  0  0  0  0  0  0  0
    6.2680   47.2130   54.2610 N   0  0  0  0  0  0  0  0  0  0  0  0
    1.9860   46.0360   53.0560 C   0  0  0  0  0  0  0  0  0  0  0  0
    0.7870   45.3120   53.0490 C   0  0  0  0  0  0  0  0  0  0  0  0
   -1.9020   45.2510   55.2780 H   0  0  0  0  0  0  0  0  0  0  0  0
   -2.7680   43.8170   54.8640 H   0  0  0  0  0  0  0  0  0  0  0  0
    0.9701   43.9777   56.1786 H   0  0  0  0  0  0  0  0  0  0  0  0
    3.0863   45.2830   56.1829 H   0  0  0  0  0  0  0  0  0  0  0  0
    3.9610   47.7520   54.4650 H   0  0  0  0  0  0  0  0  0  0  0  0
    8.6523   45.7215   50.1560 H   0  0  0  0  0  0  0  0  0  0  0  0
    8.8181   44.2448   48.1596 H   0  0  0  0  0  0  0  0  0  0  0  0
    7.1298   42.4459   47.7908 H   0  0  0  0  0  0  0  0  0  0  0  0
    5.2633   42.1393   49.4164 H   0  0  0  0  0  0  0  0  0  0  0  0
    5.0914   43.6138   51.4128 H   0  0  0  0  0  0  0  0  0  0  0  0
    9.4872   45.4232   51.5381 H   0  0  0  0  0  0  0  0  0  0  0  0
   11.2840   46.5994   52.7984 H   0  0  0  0  0  0  0  0  0  0  0  0
   10.6776   48.0614   54.7282 H   0  0  0  0  0  0  0  0  0  0  0  0
    8.2968   48.3250   55.3820 H   0  0  0  0  0  0  0  0  0  0  0  0
    2.2694   46.6128   52.1632 H   0  0  0  0  0  0  0  0  0  0  0  0
    0.1434   45.3205   52.1570 H   0  0  0  0  0  0  0  0  0  0  0  0
  1  2  1  0
  2  3  2  0
  2  4  1  0
  4  5  2  0
  5  6  1  0
  6  7  2  0
  7  8  1  0
  8  9  1  0
  9 10  2  0
 10 11  1  0
 11 12  1  0
 12 13  2  0
 13 14  1  0
 14 15  2  0
 15 16  1  0
 16 17  2  0
 11 18  2  0
 18 19  1  0
 19 20  2  0
 20 21  1  0
 21 22  2  0
 22 23  1  0
 23 24  2  0
  7 25  1  0
 25 26  2  0
 26  4  1  0
 24  9  1  0
 17 12  1  0
 23 18  1  0
  1 27  1  0
  1 28  1  0
  5 29  1  0
  6 30  1  0
  8 31  1  0
 13 32  1  0
 14 33  1  0
 15 34  1  0
 16 35  1  0
 17 36  1  0
 19 37  1  0
 20 38  1  0
 21 39  1  0
 22 40  1  0
 25 41  1  0
 26 42  1  0
M  END
>  <meeko>  (500) 
{"is_sidechain": false}

>  <CID>  (500) 
Z94803042

>  <pose_index>  (500) 
1

>  <docking_score>  (500) 
-10.201

>  <rmsd_to_best_selected>  (500) 
0.0

>  <MWT>  (500) 
340.38599999999974

>  <TPSA>  (500) 
80.9

>  <logP>  (500) 
4.139300000000002

>  <HBD>  (500) 
2

>  <HBA>  (500) 
4

>  <SMILES>  (500) 
[H]c1c([H])c([H])c(-c2nc(N([H])c3c([H])c([H])c(C(=O)N([H])[H])c([H])c3[H])nc3c([H])c([H])c([H])c([H])c23)c([H])c1[H]

$$$$
Z94803042_pose2
     RDKit          3D

 42 45  0  0  0  0  0  0  0  0999 V2000
   -1.2953   43.1911   55.0001 N   0  0  0  0  0  0  0  0  0  0  0  0
   -0.9805   44.1189   54.0453 C   0  0  0  0  0  0  0  0  0  0  0  0
   -1.7461   44.3440   53.1179 O   0  0  0  0  0  0  0  0  0  0  0  0
    0.3382   44.7976   54.1599 C   0  0  0  0  0  0  0  0  0  0  0  0
    1.0913   44.9924   53.0004 C   0  0  0  0  0  0  0  0  0  0  0  0
    2.3404   45.6238   53.0625 C   0  0  0  0  0  0  0  0  0  0  0  0
    2.8581   46.0885   54.2756 C   0  0  0  0  0  0  0  0  0  0  0  0
    4.1040   46.7107   54.4061 N   0  0  0  0  0  0  0  0  0  0  0  0
    5.3385   46.5442   53.7832 C   0  0  0  0  0  0  0  0  0  0  0  0
    5.4876   45.7654   52.7108 N   0  0  0  0  0  0  0  0  0  0  0  0
    6.7200   45.6606   52.1678 C   0  0  0  0  0  0  0  0  0  0  0  0
    6.7606   44.8044   50.9723 C   0  0  0  0  0  0  0  0  0  0  0  0
    5.8048   44.9279   49.9494 C   0  0  0  0  0  0  0  0  0  0  0  0
    5.8502   44.1072   48.8199 C   0  0  0  0  0  0  0  0  0  0  0  0
    6.8487   43.1436   48.6989 C   0  0  0  0  0  0  0  0  0  0  0  0
    7.7958   42.9940   49.7100 C   0  0  0  0  0  0  0  0  0  0  0  0
    7.7486   43.8143   50.8383 C   0  0  0  0  0  0  0  0  0  0  0  0
    7.8416   46.3080   52.7010 C   0  0  0  0  0  0  0  0  0  0  0  0
    9.1730   46.2130   52.2137 C   0  0  0  0  0  0  0  0  0  0  0  0
   10.2090   46.9092   52.8293 C   0  0  0  0  0  0  0  0  0  0  0  0
    9.9337   47.6998   53.9344 C   0  0  0  0  0  0  0  0  0  0  0  0
    8.6242   47.7837   54.4180 C   0  0  0  0  0  0  0  0  0  0  0  0
    7.5732   47.0960   53.8233 C   0  0  0  0  0  0  0  0  0  0  0  0
    6.3491   47.2159   54.3517 N   0  0  0  0  0  0  0  0  0  0  0  0
    2.0828   45.8950   55.4306 C   0  0  0  0  0  0  0  0  0  0  0  0
    0.8347   45.2612   55.3797 C   0  0  0  0  0  0  0  0  0  0  0  0
   -0.5882   42.7656   55.5812 H   0  0  0  0  0  0  0  0  0  0  0  0
   -2.1315   42.6491   54.8196 H   0  0  0  0  0  0  0  0  0  0  0  0
    0.7011   44.6478   52.0314 H   0  0  0  0  0  0  0  0  0  0  0  0
    2.9247   45.7565   52.1400 H   0  0  0  0  0  0  0  0  0  0  0  0
    4.1677   47.4879   55.0463 H   0  0  0  0  0  0  0  0  0  0  0  0
    5.0090   45.6820   50.0395 H   0  0  0  0  0  0  0  0  0  0  0  0
    5.0974   44.2218   48.0261 H   0  0  0  0  0  0  0  0  0  0  0  0
    6.8896   42.5018   47.8065 H   0  0  0  0  0  0  0  0  0  0  0  0
    8.5810   42.2291   49.6190 H   0  0  0  0  0  0  0  0  0  0  0  0
    8.4960   43.6836   51.6347 H   0  0  0  0  0  0  0  0  0  0  0  0
    9.3876   45.5814   51.3390 H   0  0  0  0  0  0  0  0  0  0  0  0
   11.2361   46.8330   52.4429 H   0  0  0  0  0  0  0  0  0  0  0  0
   10.7419   48.2587   54.4288 H   0  0  0  0  0  0  0  0  0  0  0  0
    8.4198   48.4135   55.2963 H   0  0  0  0  0  0  0  0  0  0  0  0
    2.4652   46.2499   56.3991 H   0  0  0  0  0  0  0  0  0  0  0  0
    0.2463   45.1290   56.2996 H   0  0  0  0  0  0  0  0  0  0  0  0
  1  2  1  0
  2  3  2  0
  2  4  1  0
  4  5  2  0
  5  6  1  0
  6  7  2  0
  7  8  1  0
  8  9  1  0
  9 10  2  0
 10 11  1  0
 11 12  1  0
 12 13  2  0
 13 14  1  0
 14 15  2  0
 15 16  1  0
 16 17  2  0
 11 18  2  0
 18 19  1  0
 19 20  2  0
 20 21  1  0
 21 22  2  0
 22 23  1  0
 23 24  2  0
  7 25  1  0
 25 26  2  0
 26  4  1  0
 24  9  1  0
 17 12  1  0
 23 18  1  0
  1 27  1  0
  1 28  1  0
  5 29  1  0
  6 30  1  0
  8 31  1  0
 13 32  1  0
 14 33  1  0
 15 34  1  0
 16 35  1  0
 17 36  1  0
 19 37  1  0
 20 38  1  0
 21 39  1  0
 22 40  1  0
 25 41  1  0
 26 42  1  0
M  END
>  <meeko>  (501) 
{"is_sidechain": false}

>  <CID>  (501) 
Z94803042

>  <pose_index>  (501) 
2

>  <docking_score>  (501) 
-9.878

>  <rmsd_to_best_selected>  (501) 
1.1708260088139246

>  <MWT>  (501) 
340.38599999999974

>  <TPSA>  (501) 
80.9

>  <logP>  (501) 
4.139300000000002

>  <HBD>  (501) 
2

>  <HBA>  (501) 
4

>  <SMILES>  (501) 
[H]c1c([H])c([H])c(-c2nc(N([H])c3c([H])c([H])c(C(=O)N([H])[H])c([H])c3[H])nc3c([H])c([H])c([H])c([H])c23)c([H])c1[H]

$$$$
Z94803042_pose3
     RDKit          3D

 42 45  0  0  0  0  0  0  0  0999 V2000
   -1.9223   44.3801   54.1992 N   0  0  0  0  0  0  0  0  0  0  0  0
   -0.7795   43.6286   54.2352 C   0  0  0  0  0  0  0  0  0  0  0  0
   -0.8345   42.4067   54.2104 O   0  0  0  0  0  0  0  0  0  0  0  0
    0.5135   44.3565   54.3517 C   0  0  0  0  0  0  0  0  0  0  0  0
    1.0044   45.0277   53.2300 C   0  0  0  0  0  0  0  0  0  0  0  0
    2.2196   45.7214   53.2929 C   0  0  0  0  0  0  0  0  0  0  0  0
    2.9635   45.7745   54.4756 C   0  0  0  0  0  0  0  0  0  0  0  0
    4.1900   46.4360   54.5987 N   0  0  0  0  0  0  0  0  0  0  0  0
    5.3851   46.3967   53.8862 C   0  0  0  0  0  0  0  0  0  0  0  0
    5.5513   45.5976   52.8319 N   0  0  0  0  0  0  0  0  0  0  0  0
    6.7430   45.6223   52.1963 C   0  0  0  0  0  0  0  0  0  0  0  0
    6.8021   44.7278   51.0288 C   0  0  0  0  0  0  0  0  0  0  0  0
    7.2719   43.4078   51.1407 C   0  0  0  0  0  0  0  0  0  0  0  0
    7.3275   42.5683   50.0262 C   0  0  0  0  0  0  0  0  0  0  0  0
    6.9232   43.0387   48.7781 C   0  0  0  0  0  0  0  0  0  0  0  0
    6.4697   44.3502   48.6439 C   0  0  0  0  0  0  0  0  0  0  0  0
    6.4154   45.1877   49.7590 C   0  0  0  0  0  0  0  0  0  0  0  0
    7.8104   46.4244   52.6179 C   0  0  0  0  0  0  0  0  0  0  0  0
    9.1036   46.4721   52.0300 C   0  0  0  0  0  0  0  0  0  0  0  0
   10.0873   47.3159   52.5388 C   0  0  0  0  0  0  0  0  0  0  0  0
    9.7976   48.1124   53.6371 C   0  0  0  0  0  0  0  0  0  0  0  0
    8.5277   48.0552   54.2188 C   0  0  0  0  0  0  0  0  0  0  0  0
    7.5298   47.2195   53.7317 C   0  0  0  0  0  0  0  0  0  0  0  0
    6.3432   47.2101   54.3508 N   0  0  0  0  0  0  0  0  0  0  0  0
    2.4494   45.1037   55.5983 C   0  0  0  0  0  0  0  0  0  0  0  0
    1.2380   44.4044   55.5446 C   0  0  0  0  0  0  0  0  0  0  0  0
   -1.9397   45.3367   54.5198 H   0  0  0  0  0  0  0  0  0  0  0  0
   -2.7869   43.8561   54.2602 H   0  0  0  0  0  0  0  0  0  0  0  0
    0.4329   45.0115   52.2903 H   0  0  0  0  0  0  0  0  0  0  0  0
    2.5957   46.2340   52.3952 H   0  0  0  0  0  0  0  0  0  0  0  0
    4.2659   47.1401   55.3175 H   0  0  0  0  0  0  0  0  0  0  0  0
    7.6006   43.0306   52.1204 H   0  0  0  0  0  0  0  0  0  0  0  0
    7.6904   41.5355   50.1334 H   0  0  0  0  0  0  0  0  0  0  0  0
    6.9619   42.3765   47.9006 H   0  0  0  0  0  0  0  0  0  0  0  0
    6.1547   44.7251   47.6589 H   0  0  0  0  0  0  0  0  0  0  0  0
    6.0643   46.2236   49.6419 H   0  0  0  0  0  0  0  0  0  0  0  0
    9.3299   45.8347   51.1626 H   0  0  0  0  0  0  0  0  0  0  0  0
   11.0839   47.3507   52.0746 H   0  0  0  0  0  0  0  0  0  0  0  0
   10.5638   48.7860   54.0485 H   0  0  0  0  0  0  0  0  0  0  0  0
    8.3115   48.6918   55.0895 H   0  0  0  0  0  0  0  0  0  0  0  0
    3.0128   45.1288   56.5427 H   0  0  0  0  0  0  0  0  0  0  0  0
    0.8571   43.8932   56.4410 H   0  0  0  0  0  0  0  0  0  0  0  0
  1  2  1  0
  2  3  2  0
  2  4  1  0
  4  5  2  0
  5  6  1  0
  6  7  2  0
  7  8  1  0
  8  9  1  0
  9 10  2  0
 10 11  1  0
 11 12  1  0
 12 13  2  0
 13 14  1  0
 14 15  2  0
 15 16  1  0
 16 17  2  0
 11 18  2  0
 18 19  1  0
 19 20  2  0
 20 21  1  0
 21 22  2  0
 22 23  1  0
 23 24  2  0
  7 25  1  0
 25 26  2  0
 26  4  1  0
 24  9  1  0
 17 12  1  0
 23 18  1  0
  1 27  1  0
  1 28  1  0
  5 29  1  0
  6 30  1  0
  8 31  1  0
 13 32  1  0
 14 33  1  0
 15 34  1  0
 16 35  1  0
 17 36  1  0
 19 37  1  0
 20 38  1  0
 21 39  1  0
 22 40  1  0
 25 41  1  0
 26 42  1  0
M  END
>  <meeko>  (502) 
{"is_sidechain": false}

>  <CID>  (502) 
Z94803042

>  <pose_index>  (502) 
3

>  <docking_score>  (502) 
-9.746

>  <rmsd_to_best_selected>  (502) 
0.9937706290887024

>  <MWT>  (502) 
340.38599999999974

>  <TPSA>  (502) 
80.9

>  <logP>  (502) 
4.139300000000002

>  <HBD>  (502) 
2

>  <HBA>  (502) 
4

>  <SMILES>  (502) 
[H]c1c([H])c([H])c(-c2nc(N([H])c3c([H])c([H])c(C(=O)N([H])[H])c([H])c3[H])nc3c([H])c([H])c([H])c([H])c23)c([H])c1[H]

$$$$
Z94803042_pose4
     RDKit          3D

 42 45  0  0  0  0  0  0  0  0999 V2000
   -1.5089   43.6060   55.4132 N   0  0  0  0  0  0  0  0  0  0  0  0
   -0.7211   43.5444   54.2954 C   0  0  0  0  0  0  0  0  0  0  0  0
   -1.0019   42.7882   53.3766 O   0  0  0  0  0  0  0  0  0  0  0  0
    0.4988   44.3954   54.2711 C   0  0  0  0  0  0  0  0  0  0  0  0
    0.7314   45.1962   53.1506 C   0  0  0  0  0  0  0  0  0  0  0  0
    1.8695   46.0097   53.0838 C   0  0  0  0  0  0  0  0  0  0  0  0
    2.7918   46.0546   54.1339 C   0  0  0  0  0  0  0  0  0  0  0  0
    3.9538   46.8329   54.1203 N   0  0  0  0  0  0  0  0  0  0  0  0
    5.2189   46.6710   53.5612 C   0  0  0  0  0  0  0  0  0  0  0  0
    5.4428   45.8251   52.5551 N   0  0  0  0  0  0  0  0  0  0  0  0
    6.6996   45.7303   52.0707 C   0  0  0  0  0  0  0  0  0  0  0  0
    6.8231   44.7943   50.9422 C   0  0  0  0  0  0  0  0  0  0  0  0
    7.7316   45.0256   49.8946 C   0  0  0  0  0  0  0  0  0  0  0  0
    7.8389   44.1331   48.8269 C   0  0  0  0  0  0  0  0  0  0  0  0
    7.0316   42.9979   48.7830 C   0  0  0  0  0  0  0  0  0  0  0  0
    6.1122   42.7600   49.8035 C   0  0  0  0  0  0  0  0  0  0  0  0
    6.0070   43.6538   50.8708 C   0  0  0  0  0  0  0  0  0  0  0  0
    7.7736   46.4575   52.6005 C   0  0  0  0  0  0  0  0  0  0  0  0
    9.1268   46.3795   52.1764 C   0  0  0  0  0  0  0  0  0  0  0  0
   10.1112   47.1565   52.7817 C   0  0  0  0  0  0  0  0  0  0  0  0
    9.7590   48.0124   53.8154 C   0  0  0  0  0  0  0  0  0  0  0  0
    8.4285   48.0788   54.2377 C   0  0  0  0  0  0  0  0  0  0  0  0
    7.4285   47.3109   53.6521 C   0  0  0  0  0  0  0  0  0  0  0  0
    6.1801   47.4200   54.1206 N   0  0  0  0  0  0  0  0  0  0  0  0
    2.5366   45.2527   55.2579 C   0  0  0  0  0  0  0  0  0  0  0  0
    1.4037   44.4328   55.3339 C   0  0  0  0  0  0  0  0  0  0  0  0
   -1.1602   43.9672   56.2899 H   0  0  0  0  0  0  0  0  0  0  0  0
   -2.2509   42.9182   55.4597 H   0  0  0  0  0  0  0  0  0  0  0  0
    0.0160   45.1877   52.3150 H   0  0  0  0  0  0  0  0  0  0  0  0
    2.0411   46.6250   52.1882 H   0  0  0  0  0  0  0  0  0  0  0  0
    3.9091   47.7408   54.5584 H   0  0  0  0  0  0  0  0  0  0  0  0
    8.3673   45.9231   49.9167 H   0  0  0  0  0  0  0  0  0  0  0  0
    8.5609   44.3257   48.0197 H   0  0  0  0  0  0  0  0  0  0  0  0
    7.1197   42.2910   47.9448 H   0  0  0  0  0  0  0  0  0  0  0  0
    5.4696   41.8679   49.7679 H   0  0  0  0  0  0  0  0  0  0  0  0
    5.2737   43.4617   51.6678 H   0  0  0  0  0  0  0  0  0  0  0  0
    9.4008   45.6963   51.3589 H   0  0  0  0  0  0  0  0  0  0  0  0
   11.1562   47.0925   52.4442 H   0  0  0  0  0  0  0  0  0  0  0  0
   10.5241   48.6363   54.3006 H   0  0  0  0  0  0  0  0  0  0  0  0
    8.1641   48.7603   55.0597 H   0  0  0  0  0  0  0  0  0  0  0  0
    3.2443   45.2689   56.0999 H   0  0  0  0  0  0  0  0  0  0  0  0
    1.2270   43.8191   56.2296 H   0  0  0  0  0  0  0  0  0  0  0  0
  1  2  1  0
  2  3  2  0
  2  4  1  0
  4  5  2  0
  5  6  1  0
  6  7  2  0
  7  8  1  0
  8  9  1  0
  9 10  2  0
 10 11  1  0
 11 12  1  0
 12 13  2  0
 13 14  1  0
 14 15  2  0
 15 16  1  0
 16 17  2  0
 11 18  2  0
 18 19  1  0
 19 20  2  0
 20 21  1  0
 21 22  2  0
 22 23  1  0
 23 24  2  0
  7 25  1  0
 25 26  2  0
 26  4  1  0
 24  9  1  0
 17 12  1  0
 23 18  1  0
  1 27  1  0
  1 28  1  0
  5 29  1  0
  6 30  1  0
  8 31  1  0
 13 32  1  0
 14 33  1  0
 15 34  1  0
 16 35  1  0
 17 36  1  0
 19 37  1  0
 20 38  1  0
 21 39  1  0
 22 40  1  0
 25 41  1  0
 26 42  1  0
M  END
>  <meeko>  (503) 
{"is_sidechain": false}

>  <CID>  (503) 
Z94803042

>  <pose_index>  (503) 
4

>  <docking_score>  (503) 
-9.635

>  <rmsd_to_best_selected>  (503) 
0.321697854715025

>  <MWT>  (503) 
340.38599999999974

>  <TPSA>  (503) 
80.9

>  <logP>  (503) 
4.139300000000002

>  <HBD>  (503) 
2

>  <HBA>  (503) 
4

>  <SMILES>  (503) 
[H]c1c([H])c([H])c(-c2nc(N([H])c3c([H])c([H])c(C(=O)N([H])[H])c([H])c3[H])nc3c([H])c([H])c([H])c([H])c23)c([H])c1[H]

$$$$
Z94803042_pose5
     RDKit          3D

 42 45  0  0  0  0  0  0  0  0999 V2000
   -1.5399   43.4144   54.4827 N   0  0  0  0  0  0  0  0  0  0  0  0
   -0.5293   43.6373   55.3784 C   0  0  0  0  0  0  0  0  0  0  0  0
   -0.5885   43.1784   56.5119 O   0  0  0  0  0  0  0  0  0  0  0  0
    0.6056   44.4882   54.9318 C   0  0  0  0  0  0  0  0  0  0  0  0
    0.9444   45.6041   55.6982 C   0  0  0  0  0  0  0  0  0  0  0  0
    2.0049   46.4348   55.3127 C   0  0  0  0  0  0  0  0  0  0  0  0
    2.7572   46.1651   54.1656 C   0  0  0  0  0  0  0  0  0  0  0  0
    3.8150   46.9634   53.7186 N   0  0  0  0  0  0  0  0  0  0  0  0
    5.1143   46.6990   53.2945 C   0  0  0  0  0  0  0  0  0  0  0  0
    5.3668   45.9493   52.2207 N   0  0  0  0  0  0  0  0  0  0  0  0
    6.6562   45.7424   51.8778 C   0  0  0  0  0  0  0  0  0  0  0  0
    6.8157   44.9319   50.6599 C   0  0  0  0  0  0  0  0  0  0  0  0
    6.7936   43.5271   50.7084 C   0  0  0  0  0  0  0  0  0  0  0  0
    6.9499   42.7665   49.5467 C   0  0  0  0  0  0  0  0  0  0  0  0
    7.1397   43.3985   48.3197 C   0  0  0  0  0  0  0  0  0  0  0  0
    7.1805   44.7900   48.2538 C   0  0  0  0  0  0  0  0  0  0  0  0
    7.0249   45.5483   49.4151 C   0  0  0  0  0  0  0  0  0  0  0  0
    7.7297   46.2539   52.6182 C   0  0  0  0  0  0  0  0  0  0  0  0
    9.1088   46.0441   52.3470 C   0  0  0  0  0  0  0  0  0  0  0  0
   10.0896   46.6102   53.1583 C   0  0  0  0  0  0  0  0  0  0  0  0
    9.7079   47.3832   54.2457 C   0  0  0  0  0  0  0  0  0  0  0  0
    8.3505   47.5780   54.5153 C   0  0  0  0  0  0  0  0  0  0  0  0
    7.3530   47.0224   53.7230 C   0  0  0  0  0  0  0  0  0  0  0  0
    6.0748   47.2447   54.0532 N   0  0  0  0  0  0  0  0  0  0  0  0
    2.4095   45.0321   53.4114 C   0  0  0  0  0  0  0  0  0  0  0  0
    1.3502   44.1968   53.7868 C   0  0  0  0  0  0  0  0  0  0  0  0
   -1.6760   44.0075   53.6773 H   0  0  0  0  0  0  0  0  0  0  0  0
   -2.3586   42.9516   54.8582 H   0  0  0  0  0  0  0  0  0  0  0  0
    0.3751   45.8332   56.6111 H   0  0  0  0  0  0  0  0  0  0  0  0
    2.2501   47.3157   55.9240 H   0  0  0  0  0  0  0  0  0  0  0  0
    3.6386   47.9527   53.6189 H   0  0  0  0  0  0  0  0  0  0  0  0
    6.6512   43.0198   51.6740 H   0  0  0  0  0  0  0  0  0  0  0  0
    6.9230   41.6682   49.6011 H   0  0  0  0  0  0  0  0  0  0  0  0
    7.2573   42.8000   47.4042 H   0  0  0  0  0  0  0  0  0  0  0  0
    7.3353   45.2905   47.2866 H   0  0  0  0  0  0  0  0  0  0  0  0
    7.0668   46.6459   49.3546 H   0  0  0  0  0  0  0  0  0  0  0  0
    9.4054   45.4270   51.4861 H   0  0  0  0  0  0  0  0  0  0  0  0
   11.1550   46.4463   52.9393 H   0  0  0  0  0  0  0  0  0  0  0  0
   10.4706   47.8409   54.8928 H   0  0  0  0  0  0  0  0  0  0  0  0
    8.0624   48.1906   55.3824 H   0  0  0  0  0  0  0  0  0  0  0  0
    2.9836   44.7952   52.5035 H   0  0  0  0  0  0  0  0  0  0  0  0
    1.1048   43.3123   53.1806 H   0  0  0  0  0  0  0  0  0  0  0  0
  1  2  1  0
  2  3  2  0
  2  4  1  0
  4  5  2  0
  5  6  1  0
  6  7  2  0
  7  8  1  0
  8  9  1  0
  9 10  2  0
 10 11  1  0
 11 12  1  0
 12 13  2  0
 13 14  1  0
 14 15  2  0
 15 16  1  0
 16 17  2  0
 11 18  2  0
 18 19  1  0
 19 20  2  0
 20 21  1  0
 21 22  2  0
 22 23  1  0
 23 24  2  0
  7 25  1  0
 25 26  2  0
 26  4  1  0
 24  9  1  0
 17 12  1  0
 23 18  1  0
  1 27  1  0
  1 28  1  0
  5 29  1  0
  6 30  1  0
  8 31  1  0
 13 32  1  0
 14 33  1  0
 15 34  1  0
 16 35  1  0
 17 36  1  0
 19 37  1  0
 20 38  1  0
 21 39  1  0
 22 40  1  0
 25 41  1  0
 26 42  1  0
M  END
>  <meeko>  (504) 
{"is_sidechain": false}

>  <CID>  (504) 
Z94803042

>  <pose_index>  (504) 
5

>  <docking_score>  (504) 
-9.579

>  <rmsd_to_best_selected>  (504) 
1.1520724626983514

>  <MWT>  (504) 
340.38599999999974

>  <TPSA>  (504) 
80.9

>  <logP>  (504) 
4.139300000000002

>  <HBD>  (504) 
2

>  <HBA>  (504) 
4

>  <SMILES>  (504) 
[H]c1c([H])c([H])c(-c2nc(N([H])c3c([H])c([H])c(C(=O)N([H])[H])c([H])c3[H])nc3c([H])c([H])c([H])c([H])c23)c([H])c1[H]

$$$$
Z94803042_pose8
     RDKit          3D

 42 45  0  0  0  0  0  0  0  0999 V2000
   -0.1893   43.3514   56.8354 N   0  0  0  0  0  0  0  0  0  0  0  0
   -0.4627   43.6433   55.5268 C   0  0  0  0  0  0  0  0  0  0  0  0
   -1.4547   43.1828   54.9793 O   0  0  0  0  0  0  0  0  0  0  0  0
    0.5146   44.4963   54.7987 C   0  0  0  0  0  0  0  0  0  0  0  0
    1.0502   44.0235   53.5989 C   0  0  0  0  0  0  0  0  0  0  0  0
    1.9756   44.7921   52.8811 C   0  0  0  0  0  0  0  0  0  0  0  0
    2.3762   46.0529   53.3338 C   0  0  0  0  0  0  0  0  0  0  0  0
    3.3071   46.8607   52.6736 N   0  0  0  0  0  0  0  0  0  0  0  0
    4.6784   46.7712   52.4506 C   0  0  0  0  0  0  0  0  0  0  0  0
    5.2392   45.6744   51.9386 N   0  0  0  0  0  0  0  0  0  0  0  0
    6.5773   45.6723   51.7526 C   0  0  0  0  0  0  0  0  0  0  0  0
    7.0818   44.4269   51.1523 C   0  0  0  0  0  0  0  0  0  0  0  0
    8.2806   43.8366   51.5900 C   0  0  0  0  0  0  0  0  0  0  0  0
    8.7530   42.6560   51.0111 C   0  0  0  0  0  0  0  0  0  0  0  0
    8.0393   42.0525   49.9779 C   0  0  0  0  0  0  0  0  0  0  0  0
    6.8578   42.6319   49.5195 C   0  0  0  0  0  0  0  0  0  0  0  0
    6.3872   43.8110   50.0988 C   0  0  0  0  0  0  0  0  0  0  0  0
    7.3940   46.7546   52.1021 C   0  0  0  0  0  0  0  0  0  0  0  0
    8.8082   46.8102   51.9781 C   0  0  0  0  0  0  0  0  0  0  0  0
    9.5139   47.9484   52.3602 C   0  0  0  0  0  0  0  0  0  0  0  0
    8.8217   49.0360   52.8714 C   0  0  0  0  0  0  0  0  0  0  0  0
    7.4314   48.9747   53.0013 C   0  0  0  0  0  0  0  0  0  0  0  0
    6.7050   47.8495   52.6306 C   0  0  0  0  0  0  0  0  0  0  0  0
    5.3768   47.8607   52.7979 N   0  0  0  0  0  0  0  0  0  0  0  0
    1.8195   46.5195   54.5366 C   0  0  0  0  0  0  0  0  0  0  0  0
    0.8960   45.7567   55.2632 C   0  0  0  0  0  0  0  0  0  0  0  0
    0.7401   43.4479   57.2189 H   0  0  0  0  0  0  0  0  0  0  0  0
   -0.7954   42.6606   57.2613 H   0  0  0  0  0  0  0  0  0  0  0  0
    0.7432   43.0397   53.2144 H   0  0  0  0  0  0  0  0  0  0  0  0
    2.3947   44.3965   51.9442 H   0  0  0  0  0  0  0  0  0  0  0  0
    2.9554   47.6779   52.1986 H   0  0  0  0  0  0  0  0  0  0  0  0
    8.8547   44.3111   52.3995 H   0  0  0  0  0  0  0  0  0  0  0  0
    9.6884   42.2028   51.3712 H   0  0  0  0  0  0  0  0  0  0  0  0
    8.4078   41.1204   49.5248 H   0  0  0  0  0  0  0  0  0  0  0  0
    6.2956   42.1595   48.7005 H   0  0  0  0  0  0  0  0  0  0  0  0
    5.4578   44.2650   49.7244 H   0  0  0  0  0  0  0  0  0  0  0  0
    9.3526   45.9434   51.5752 H   0  0  0  0  0  0  0  0  0  0  0  0
   10.6085   47.9843   52.2576 H   0  0  0  0  0  0  0  0  0  0  0  0
    9.3649   49.9435   53.1736 H   0  0  0  0  0  0  0  0  0  0  0  0
    6.8955   49.8442   53.4097 H   0  0  0  0  0  0  0  0  0  0  0  0
    2.1162   47.5080   54.9170 H   0  0  0  0  0  0  0  0  0  0  0  0
    0.4717   46.1503   56.1987 H   0  0  0  0  0  0  0  0  0  0  0  0
  1  2  1  0
  2  3  2  0
  2  4  1  0
  4  5  2  0
  5  6  1  0
  6  7  2  0
  7  8  1  0
  8  9  1  0
  9 10  2  0
 10 11  1  0
 11 12  1  0
 12 13  2  0
 13 14  1  0
 14 15  2  0
 15 16  1  0
 16 17  2  0
 11 18  2  0
 18 19  1  0
 19 20  2  0
 20 21  1  0
 21 22  2  0
 22 23  1  0
 23 24  2  0
  7 25  1  0
 25 26  2  0
 26  4  1  0
 24  9  1  0
 17 12  1  0
 23 18  1  0
  1 27  1  0
  1 28  1  0
  5 29  1  0
  6 30  1  0
  8 31  1  0
 13 32  1  0
 14 33  1  0
 15 34  1  0
 16 35  1  0
 17 36  1  0
 19 37  1  0
 20 38  1  0
 21 39  1  0
 22 40  1  0
 25 41  1  0
 26 42  1  0
M  END
>  <meeko>  (505) 
{"is_sidechain": false}

>  <CID>  (505) 
Z94803042

>  <pose_index>  (505) 
8

>  <docking_score>  (505) 
-9.344

>  <rmsd_to_best_selected>  (505) 
1.3457017540394336

>  <MWT>  (505) 
340.38599999999974

>  <TPSA>  (505) 
80.9

>  <logP>  (505) 
4.139300000000002

>  <HBD>  (505) 
2

>  <HBA>  (505) 
4

>  <SMILES>  (505) 
[H]c1c([H])c([H])c(-c2nc(N([H])c3c([H])c([H])c(C(=O)N([H])[H])c([H])c3[H])nc3c([H])c([H])c([H])c([H])c23)c([H])c1[H]

$$$$
Z94803042_pose9
     RDKit          3D

 42 45  0  0  0  0  0  0  0  0999 V2000
   -1.7601   43.9154   54.4449 N   0  0  0  0  0  0  0  0  0  0  0  0
   -1.1516   45.0436   54.9231 C   0  0  0  0  0  0  0  0  0  0  0  0
   -1.8158   45.9882   55.3253 O   0  0  0  0  0  0  0  0  0  0  0  0
    0.3352   45.0843   54.8907 C   0  0  0  0  0  0  0  0  0  0  0  0
    0.9843   46.1942   55.4344 C   0  0  0  0  0  0  0  0  0  0  0  0
    2.3828   46.2767   55.4205 C   0  0  0  0  0  0  0  0  0  0  0  0
    3.1650   45.2508   54.8809 C   0  0  0  0  0  0  0  0  0  0  0  0
    4.5610   45.2807   54.8228 N   0  0  0  0  0  0  0  0  0  0  0  0
    5.4802   45.6800   53.8559 C   0  0  0  0  0  0  0  0  0  0  0  0
    6.0509   44.8086   53.0227 N   0  0  0  0  0  0  0  0  0  0  0  0
    6.9319   45.2811   52.1143 C   0  0  0  0  0  0  0  0  0  0  0  0
    7.4724   44.2386   51.2273 C   0  0  0  0  0  0  0  0  0  0  0  0
    6.6249   43.3693   50.5179 C   0  0  0  0  0  0  0  0  0  0  0  0
    7.1485   42.3805   49.6808 C   0  0  0  0  0  0  0  0  0  0  0  0
    8.5285   42.2402   49.5472 C   0  0  0  0  0  0  0  0  0  0  0  0
    9.3839   43.0819   50.2544 C   0  0  0  0  0  0  0  0  0  0  0  0
    8.8598   44.0686   51.0907 C   0  0  0  0  0  0  0  0  0  0  0  0
    7.2882   46.6332   52.0345 C   0  0  0  0  0  0  0  0  0  0  0  0
    8.2353   47.1971   51.1381 C   0  0  0  0  0  0  0  0  0  0  0  0
    8.5061   48.5623   51.1522 C   0  0  0  0  0  0  0  0  0  0  0  0
    7.8419   49.3768   52.0586 C   0  0  0  0  0  0  0  0  0  0  0  0
    6.9182   48.8173   52.9462 C   0  0  0  0  0  0  0  0  0  0  0  0
    6.6333   47.4562   52.9533 C   0  0  0  0  0  0  0  0  0  0  0  0
    5.7468   46.9936   53.8428 N   0  0  0  0  0  0  0  0  0  0  0  0
    2.4964   44.1356   54.3487 C   0  0  0  0  0  0  0  0  0  0  0  0
    1.0982   44.0458   54.3532 C   0  0  0  0  0  0  0  0  0  0  0  0
   -1.2776   43.2682   53.8383 H   0  0  0  0  0  0  0  0  0  0  0  0
   -2.7670   43.9721   54.3516 H   0  0  0  0  0  0  0  0  0  0  0  0
    0.3936   47.0098   55.8768 H   0  0  0  0  0  0  0  0  0  0  0  0
    2.8750   47.1654   55.8423 H   0  0  0  0  0  0  0  0  0  0  0  0
    5.0650   45.0050   55.6528 H   0  0  0  0  0  0  0  0  0  0  0  0
    5.5345   43.4691   50.6233 H   0  0  0  0  0  0  0  0  0  0  0  0
    6.4716   41.7130   49.1274 H   0  0  0  0  0  0  0  0  0  0  0  0
    8.9418   41.4658   48.8842 H   0  0  0  0  0  0  0  0  0  0  0  0
   10.4734   42.9689   50.1536 H   0  0  0  0  0  0  0  0  0  0  0  0
    9.5436   44.7229   51.6513 H   0  0  0  0  0  0  0  0  0  0  0  0
    8.7612   46.5465   50.4238 H   0  0  0  0  0  0  0  0  0  0  0  0
    9.2387   48.9911   50.4525 H   0  0  0  0  0  0  0  0  0  0  0  0
    8.0415   50.4584   52.0785 H   0  0  0  0  0  0  0  0  0  0  0  0
    6.4008   49.4740   53.6611 H   0  0  0  0  0  0  0  0  0  0  0  0
    3.0853   43.3125   53.9177 H   0  0  0  0  0  0  0  0  0  0  0  0
    0.6022   43.1581   53.9338 H   0  0  0  0  0  0  0  0  0  0  0  0
  1  2  1  0
  2  3  2  0
  2  4  1  0
  4  5  2  0
  5  6  1  0
  6  7  2  0
  7  8  1  0
  8  9  1  0
  9 10  2  0
 10 11  1  0
 11 12  1  0
 12 13  2  0
 13 14  1  0
 14 15  2  0
 15 16  1  0
 16 17  2  0
 11 18  2  0
 18 19  1  0
 19 20  2  0
 20 21  1  0
 21 22  2  0
 22 23  1  0
 23 24  2  0
  7 25  1  0
 25 26  2  0
 26  4  1  0
 24  9  1  0
 17 12  1  0
 23 18  1  0
  1 27  1  0
  1 28  1  0
  5 29  1  0
  6 30  1  0
  8 31  1  0
 13 32  1  0
 14 33  1  0
 15 34  1  0
 16 35  1  0
 17 36  1  0
 19 37  1  0
 20 38  1  0
 21 39  1  0
 22 40  1  0
 25 41  1  0
 26 42  1  0
M  END
>  <meeko>  (506) 
{"is_sidechain": false}

>  <CID>  (506) 
Z94803042

>  <pose_index>  (506) 
9

>  <docking_score>  (506) 
-9.159

>  <rmsd_to_best_selected>  (506) 
1.764051858959788

>  <MWT>  (506) 
340.38599999999974

>  <TPSA>  (506) 
80.9

>  <logP>  (506) 
4.139300000000002

>  <HBD>  (506) 
2

>  <HBA>  (506) 
4

>  <SMILES>  (506) 
[H]c1c([H])c([H])c(-c2nc(N([H])c3c([H])c([H])c(C(=O)N([H])[H])c([H])c3[H])nc3c([H])c([H])c([H])c([H])c23)c([H])c1[H]

$$$$
Z990898380_pose4
     RDKit          3D

 45 47  0  0  0  0  0  0  0  0999 V2000
    6.1151   46.2929   56.2713 O   0  0  0  0  0  0  0  0  0  0  0  0
    5.5226   46.2195   55.1980 C   0  0  0  0  0  0  0  0  0  0  0  0
    4.0916   45.7434   55.0634 C   0  0  0  0  0  0  0  0  0  0  0  0
    3.4259   46.2841   53.8037 C   0  0  0  0  0  0  0  0  0  0  0  0
    3.0283   45.2163   52.8984 N   0  0  0  0  0  0  0  0  0  0  0  0
    3.8753   44.6825   51.9729 C   0  0  0  0  0  0  0  0  0  0  0  0
    5.0051   45.2289   51.6520 N   0  0  0  0  0  0  0  0  0  0  0  0
    5.8101   44.6014   50.6876 C   0  0  0  0  0  0  0  0  0  0  0  0
    7.0290   45.1871   50.3374 C   0  0  0  0  0  0  0  0  0  0  0  0
    7.8566   44.5905   49.3825 C   0  0  0  0  0  0  0  0  0  0  0  0
    7.4736   43.3982   48.7677 C   0  0  0  0  0  0  0  0  0  0  0  0
    6.2594   42.8022   49.1056 C   0  0  0  0  0  0  0  0  0  0  0  0
    5.4408   43.4106   50.0613 C   0  0  0  0  0  0  0  0  0  0  0  0
    4.1502   42.8216   50.4500 C   0  0  0  0  0  0  0  0  0  0  0  0
    3.7322   41.7826   49.9528 O   0  0  0  0  0  0  0  0  0  0  0  0
    3.4509   43.5130   51.4049 N   0  0  0  0  0  0  0  0  0  0  0  0
    6.0940   46.5549   53.9858 N   0  0  0  0  0  0  0  0  0  0  0  0
    7.5033   46.9114   53.8796 C   0  0  0  0  0  0  0  0  0  0  0  0
    8.3697   45.6740   53.6325 C   0  0  0  0  0  0  0  0  0  0  0  0
    9.8612   46.0180   53.6168 C   0  0  0  0  0  0  0  0  0  0  0  0
   10.1557   47.4484   53.1640 C   0  0  0  0  0  0  0  0  0  0  0  0
    9.1150   47.9519   52.1738 C   0  0  0  0  0  0  0  0  0  0  0  0
    7.7076   47.9608   52.7749 C   0  0  0  0  0  0  0  0  0  0  0  0
    4.0853   44.6441   55.0244 H   0  0  0  0  0  0  0  0  0  0  0  0
    3.5272   46.1140   55.9317 H   0  0  0  0  0  0  0  0  0  0  0  0
    2.5322   46.8572   54.0918 H   0  0  0  0  0  0  0  0  0  0  0  0
    4.1540   46.9212   53.2802 H   0  0  0  0  0  0  0  0  0  0  0  0
    2.3677   44.5768   53.3343 H   0  0  0  0  0  0  0  0  0  0  0  0
    7.3402   46.1264   50.8178 H   0  0  0  0  0  0  0  0  0  0  0  0
    8.8133   45.0627   49.1145 H   0  0  0  0  0  0  0  0  0  0  0  0
    8.1282   42.9294   48.0181 H   0  0  0  0  0  0  0  0  0  0  0  0
    5.9488   41.8627   48.6250 H   0  0  0  0  0  0  0  0  0  0  0  0
    2.5534   43.1315   51.6545 H   0  0  0  0  0  0  0  0  0  0  0  0
    5.6218   46.2496   53.1446 H   0  0  0  0  0  0  0  0  0  0  0  0
    7.8210   47.3507   54.8367 H   0  0  0  0  0  0  0  0  0  0  0  0
    8.1814   44.9422   54.4318 H   0  0  0  0  0  0  0  0  0  0  0  0
    8.1037   45.2616   52.6480 H   0  0  0  0  0  0  0  0  0  0  0  0
   10.2588   45.8865   54.6340 H   0  0  0  0  0  0  0  0  0  0  0  0
   10.3394   45.3450   52.8899 H   0  0  0  0  0  0  0  0  0  0  0  0
   10.1579   48.1075   54.0446 H   0  0  0  0  0  0  0  0  0  0  0  0
   11.1355   47.4545   52.6640 H   0  0  0  0  0  0  0  0  0  0  0  0
    9.3785   48.9764   51.8720 H   0  0  0  0  0  0  0  0  0  0  0  0
    9.1109   47.2709   51.3100 H   0  0  0  0  0  0  0  0  0  0  0  0
    7.5182   48.9566   53.2019 H   0  0  0  0  0  0  0  0  0  0  0  0
    7.0084   47.7139   51.9624 H   0  0  0  0  0  0  0  0  0  0  0  0
  1  2  2  0
  2  3  1  0
  3  4  1  0
  4  5  1  0
  5  6  1  0
  6  7  2  0
  7  8  1  0
  8  9  2  0
  9 10  1  0
 10 11  2  0
 11 12  1  0
 12 13  2  0
 13 14  1  0
 14 15  2  0
 14 16  1  0
  2 17  1  0
 17 18  1  0
 18 19  1  0
 19 20  1  0
 20 21  1  0
 21 22  1  0
 22 23  1  0
 16  6  1  0
 23 18  1  0
 13  8  1  0
  3 24  1  0
  3 25  1  0
  4 26  1  0
  4 27  1  0
  5 28  1  0
  9 29  1  0
 10 30  1  0
 11 31  1  0
 12 32  1  0
 16 33  1  0
 17 34  1  0
 18 35  1  0
 19 36  1  0
 19 37  1  0
 20 38  1  0
 20 39  1  0
 21 40  1  0
 21 41  1  0
 22 42  1  0
 22 43  1  0
 23 44  1  0
 23 45  1  0
M  END
>  <meeko>  (507) 
{"is_sidechain": false}

>  <CID>  (507) 
Z990898380

>  <pose_index>  (507) 
4

>  <docking_score>  (507) 
-8.731

>  <rmsd_to_best_selected>  (507) 
1.1277899545162215

>  <MWT>  (507) 
314.38899999999967

>  <TPSA>  (507) 
86.88

>  <logP>  (507) 
2.1739999999999995

>  <HBD>  (507) 
3

>  <HBA>  (507) 
4

>  <SMILES>  (507) 
[H]c1c([H])c([H])c2c(=O)n([H])c(N([H])C([H])([H])C([H])([H])C(=O)N([H])C3([H])C([H])([H])C([H])([H])C([H])([H])C([H])([H])C3([H])[H])nc2c1[H]

$$$$
Z990898380_pose1
     RDKit          3D

 45 47  0  0  0  0  0  0  0  0999 V2000
    5.8070   45.2820   55.2430 O   0  0  0  0  0  0  0  0  0  0  0  0
    5.3020   46.1870   54.5840 C   0  0  0  0  0  0  0  0  0  0  0  0
    3.8270   46.5240   54.6220 C   0  0  0  0  0  0  0  0  0  0  0  0
    3.2050   46.5280   53.2310 C   0  0  0  0  0  0  0  0  0  0  0  0
    2.9730   45.1780   52.7360 N   0  0  0  0  0  0  0  0  0  0  0  0
    3.8900   44.5010   51.9880 C   0  0  0  0  0  0  0  0  0  0  0  0
    4.9220   45.0700   51.4520 N   0  0  0  0  0  0  0  0  0  0  0  0
    5.8110   44.2860   50.7000 C   0  0  0  0  0  0  0  0  0  0  0  0
    6.9270   44.8950   50.1190 C   0  0  0  0  0  0  0  0  0  0  0  0
    7.8350   44.1460   49.3640 C   0  0  0  0  0  0  0  0  0  0  0  0
    7.6360   42.7780   49.1840 C   0  0  0  0  0  0  0  0  0  0  0  0
    6.5270   42.1550   49.7560 C   0  0  0  0  0  0  0  0  0  0  0  0
    5.6280   42.9160   50.5080 C   0  0  0  0  0  0  0  0  0  0  0  0
    4.4430   42.3070   51.1290 C   0  0  0  0  0  0  0  0  0  0  0  0
    4.1870   41.1140   51.0130 O   0  0  0  0  0  0  0  0  0  0  0  0
    3.6470   43.1630   51.8470 N   0  0  0  0  0  0  0  0  0  0  0  0
    6.0170   46.9970   53.7240 N   0  0  0  0  0  0  0  0  0  0  0  0
    7.4260   46.7550   53.4420 C   0  0  0  0  0  0  0  0  0  0  0  0
    7.8700   47.4850   52.1720 C   0  0  0  0  0  0  0  0  0  0  0  0
    9.3210   47.1620   51.8070 C   0  0  0  0  0  0  0  0  0  0  0  0
   10.1920   46.8090   53.0140 C   0  0  0  0  0  0  0  0  0  0  0  0
    9.7290   47.5270   54.2730 C   0  0  0  0  0  0  0  0  0  0  0  0
    8.2900   47.1620   54.6470 C   0  0  0  0  0  0  0  0  0  0  0  0
    3.3081   45.7770   55.2406 H   0  0  0  0  0  0  0  0  0  0  0  0
    3.7207   47.5342   55.0440 H   0  0  0  0  0  0  0  0  0  0  0  0
    2.2440   47.0616   53.2727 H   0  0  0  0  0  0  0  0  0  0  0  0
    3.9060   47.0267   52.5455 H   0  0  0  0  0  0  0  0  0  0  0  0
    2.4180   44.6270   53.3870 H   0  0  0  0  0  0  0  0  0  0  0  0
    7.0925   45.9737   50.2570 H   0  0  0  0  0  0  0  0  0  0  0  0
    8.7086   44.6375   48.9109 H   0  0  0  0  0  0  0  0  0  0  0  0
    8.3528   42.1906   48.5915 H   0  0  0  0  0  0  0  0  0  0  0  0
    6.3618   41.0764   49.6167 H   0  0  0  0  0  0  0  0  0  0  0  0
    2.8200   42.7580   52.2510 H   0  0  0  0  0  0  0  0  0  0  0  0
    5.4930   47.5530   53.0600 H   0  0  0  0  0  0  0  0  0  0  0  0
    7.5624   45.6776   53.2669 H   0  0  0  0  0  0  0  0  0  0  0  0
    7.2177   47.1807   51.3402 H   0  0  0  0  0  0  0  0  0  0  0  0
    7.7973   48.5669   52.3570 H   0  0  0  0  0  0  0  0  0  0  0  0
    9.3234   46.3073   51.1145 H   0  0  0  0  0  0  0  0  0  0  0  0
    9.7492   48.0684   51.3542 H   0  0  0  0  0  0  0  0  0  0  0  0
   10.1419   45.7234   53.1842 H   0  0  0  0  0  0  0  0  0  0  0  0
   11.2224   47.1276   52.7975 H   0  0  0  0  0  0  0  0  0  0  0  0
   10.3932   47.2490   55.1046 H   0  0  0  0  0  0  0  0  0  0  0  0
    9.7648   48.6091   54.0788 H   0  0  0  0  0  0  0  0  0  0  0  0
    8.3173   46.3209   55.3554 H   0  0  0  0  0  0  0  0  0  0  0  0
    7.8318   48.0616   55.0838 H   0  0  0  0  0  0  0  0  0  0  0  0
  1  2  2  0
  2  3  1  0
  3  4  1  0
  4  5  1  0
  5  6  1  0
  6  7  2  0
  7  8  1  0
  8  9  2  0
  9 10  1  0
 10 11  2  0
 11 12  1  0
 12 13  2  0
 13 14  1  0
 14 15  2  0
 14 16  1  0
  2 17  1  0
 17 18  1  0
 18 19  1  0
 19 20  1  0
 20 21  1  0
 21 22  1  0
 22 23  1  0
 16  6  1  0
 23 18  1  0
 13  8  1  0
  3 24  1  0
  3 25  1  0
  4 26  1  0
  4 27  1  0
  5 28  1  0
  9 29  1  0
 10 30  1  0
 11 31  1  0
 12 32  1  0
 16 33  1  0
 17 34  1  0
 18 35  1  0
 19 36  1  0
 19 37  1  0
 20 38  1  0
 20 39  1  0
 21 40  1  0
 21 41  1  0
 22 42  1  0
 22 43  1  0
 23 44  1  0
 23 45  1  0
M  END
>  <meeko>  (508) 
{"is_sidechain": false}

>  <CID>  (508) 
Z990898380

>  <pose_index>  (508) 
1

>  <docking_score>  (508) 
-9.616

>  <rmsd_to_best_selected>  (508) 
0.0

>  <MWT>  (508) 
314.38899999999967

>  <TPSA>  (508) 
86.88

>  <logP>  (508) 
2.1739999999999995

>  <HBD>  (508) 
3

>  <HBA>  (508) 
4

>  <SMILES>  (508) 
[H]c1c([H])c([H])c2c(=O)n([H])c(N([H])C([H])([H])C([H])([H])C(=O)N([H])C3([H])C([H])([H])C([H])([H])C([H])([H])C([H])([H])C3([H])[H])nc2c1[H]

$$$$
Z990898380_pose2
     RDKit          3D

 45 47  0  0  0  0  0  0  0  0999 V2000
    5.2838   48.6754   54.5251 O   0  0  0  0  0  0  0  0  0  0  0  0
    5.1107   47.6915   53.8094 C   0  0  0  0  0  0  0  0  0  0  0  0
    3.7668   47.0203   53.6248 C   0  0  0  0  0  0  0  0  0  0  0  0
    3.7086   45.6606   54.3106 C   0  0  0  0  0  0  0  0  0  0  0  0
    3.1999   44.6246   53.4222 N   0  0  0  0  0  0  0  0  0  0  0  0
    3.9397   44.0981   52.4057 C   0  0  0  0  0  0  0  0  0  0  0  0
    5.0457   44.6312   51.9889 N   0  0  0  0  0  0  0  0  0  0  0  0
    5.7367   44.0123   50.9354 C   0  0  0  0  0  0  0  0  0  0  0  0
    6.9294   44.5828   50.4809 C   0  0  0  0  0  0  0  0  0  0  0  0
    7.6461   43.9946   49.4352 C   0  0  0  0  0  0  0  0  0  0  0  0
    7.1773   42.8275   48.8319 C   0  0  0  0  0  0  0  0  0  0  0  0
    5.9898   42.2467   49.2722 C   0  0  0  0  0  0  0  0  0  0  0  0
    5.2821   42.8462   50.3192 C   0  0  0  0  0  0  0  0  0  0  0  0
    4.0226   42.2736   50.8181 C   0  0  0  0  0  0  0  0  0  0  0  0
    3.5349   41.2564   50.3393 O   0  0  0  0  0  0  0  0  0  0  0  0
    3.4365   42.9541   51.8535 N   0  0  0  0  0  0  0  0  0  0  0  0
    6.1212   47.0788   53.0966 N   0  0  0  0  0  0  0  0  0  0  0  0
    7.5120   47.4888   53.2380 C   0  0  0  0  0  0  0  0  0  0  0  0
    8.1756   46.7931   54.4304 C   0  0  0  0  0  0  0  0  0  0  0  0
    9.6072   47.2864   54.6536 C   0  0  0  0  0  0  0  0  0  0  0  0
   10.2948   47.7691   53.3763 C   0  0  0  0  0  0  0  0  0  0  0  0
    9.7906   47.0260   52.1480 C   0  0  0  0  0  0  0  0  0  0  0  0
    8.2858   47.2165   51.9382 C   0  0  0  0  0  0  0  0  0  0  0  0
    2.9855   47.6667   54.0509 H   0  0  0  0  0  0  0  0  0  0  0  0
    3.6103   46.8642   52.5472 H   0  0  0  0  0  0  0  0  0  0  0  0
    4.7219   45.3832   54.6366 H   0  0  0  0  0  0  0  0  0  0  0  0
    3.0238   45.7406   55.1677 H   0  0  0  0  0  0  0  0  0  0  0  0
    2.5712   43.9866   53.9060 H   0  0  0  0  0  0  0  0  0  0  0  0
    7.3072   45.5029   50.9507 H   0  0  0  0  0  0  0  0  0  0  0  0
    8.5830   44.4535   49.0866 H   0  0  0  0  0  0  0  0  0  0  0  0
    7.7443   42.3663   48.0098 H   0  0  0  0  0  0  0  0  0  0  0  0
    5.6128   41.3267   48.8015 H   0  0  0  0  0  0  0  0  0  0  0  0
    2.5590   42.5834   52.1811 H   0  0  0  0  0  0  0  0  0  0  0  0
    5.9390   46.1547   52.7259 H   0  0  0  0  0  0  0  0  0  0  0  0
    7.5333   48.5712   53.4328 H   0  0  0  0  0  0  0  0  0  0  0  0
    7.5841   46.9965   55.3352 H   0  0  0  0  0  0  0  0  0  0  0  0
    8.2155   45.7147   54.2173 H   0  0  0  0  0  0  0  0  0  0  0  0
    9.5797   48.1205   55.3702 H   0  0  0  0  0  0  0  0  0  0  0  0
   10.1880   46.4310   55.0289 H   0  0  0  0  0  0  0  0  0  0  0  0
   10.0960   48.8435   53.2491 H   0  0  0  0  0  0  0  0  0  0  0  0
   11.3732   47.5756   53.4744 H   0  0  0  0  0  0  0  0  0  0  0  0
   10.3229   47.4026   51.2621 H   0  0  0  0  0  0  0  0  0  0  0  0
    9.9788   45.9529   52.2998 H   0  0  0  0  0  0  0  0  0  0  0  0
    8.1346   48.0683   51.2588 H   0  0  0  0  0  0  0  0  0  0  0  0
    7.8967   46.2752   51.5228 H   0  0  0  0  0  0  0  0  0  0  0  0
  1  2  2  0
  2  3  1  0
  3  4  1  0
  4  5  1  0
  5  6  1  0
  6  7  2  0
  7  8  1  0
  8  9  2  0
  9 10  1  0
 10 11  2  0
 11 12  1  0
 12 13  2  0
 13 14  1  0
 14 15  2  0
 14 16  1  0
  2 17  1  0
 17 18  1  0
 18 19  1  0
 19 20  1  0
 20 21  1  0
 21 22  1  0
 22 23  1  0
 16  6  1  0
 23 18  1  0
 13  8  1  0
  3 24  1  0
  3 25  1  0
  4 26  1  0
  4 27  1  0
  5 28  1  0
  9 29  1  0
 10 30  1  0
 11 31  1  0
 12 32  1  0
 16 33  1  0
 17 34  1  0
 18 35  1  0
 19 36  1  0
 19 37  1  0
 20 38  1  0
 20 39  1  0
 21 40  1  0
 21 41  1  0
 22 42  1  0
 22 43  1  0
 23 44  1  0
 23 45  1  0
M  END
>  <meeko>  (509) 
{"is_sidechain": false}

>  <CID>  (509) 
Z990898380

>  <pose_index>  (509) 
2

>  <docking_score>  (509) 
-9.425

>  <rmsd_to_best_selected>  (509) 
1.3734112072141051

>  <MWT>  (509) 
314.38899999999967

>  <TPSA>  (509) 
86.88

>  <logP>  (509) 
2.1739999999999995

>  <HBD>  (509) 
3

>  <HBA>  (509) 
4

>  <SMILES>  (509) 
[H]c1c([H])c([H])c2c(=O)n([H])c(N([H])C([H])([H])C([H])([H])C(=O)N([H])C3([H])C([H])([H])C([H])([H])C([H])([H])C([H])([H])C3([H])[H])nc2c1[H]

$$$$
Z990898380_pose3
     RDKit          3D

 45 47  0  0  0  0  0  0  0  0999 V2000
    5.9669   46.9603   56.0256 O   0  0  0  0  0  0  0  0  0  0  0  0
    5.4087   46.8230   54.9399 C   0  0  0  0  0  0  0  0  0  0  0  0
    3.9357   46.5081   54.7921 C   0  0  0  0  0  0  0  0  0  0  0  0
    3.6962   45.0399   54.4578 C   0  0  0  0  0  0  0  0  0  0  0  0
    3.2291   44.8628   53.0907 N   0  0  0  0  0  0  0  0  0  0  0  0
    4.0084   44.3219   52.1107 C   0  0  0  0  0  0  0  0  0  0  0  0
    5.2862   44.1502   52.2405 N   0  0  0  0  0  0  0  0  0  0  0  0
    6.0030   43.5834   51.1744 C   0  0  0  0  0  0  0  0  0  0  0  0
    7.3809   43.3948   51.3085 C   0  0  0  0  0  0  0  0  0  0  0  0
    8.1270   42.8335   50.2690 C   0  0  0  0  0  0  0  0  0  0  0  0
    7.5009   42.4510   49.0825 C   0  0  0  0  0  0  0  0  0  0  0  0
    6.1265   42.6328   48.9329 C   0  0  0  0  0  0  0  0  0  0  0  0
    5.3930   43.1974   49.9802 C   0  0  0  0  0  0  0  0  0  0  0  0
    3.9426   43.4113   49.8694 C   0  0  0  0  0  0  0  0  0  0  0  0
    3.3153   43.1134   48.8603 O   0  0  0  0  0  0  0  0  0  0  0  0
    3.3433   43.9632   50.9725 N   0  0  0  0  0  0  0  0  0  0  0  0
    6.0601   46.9328   53.7271 N   0  0  0  0  0  0  0  0  0  0  0  0
    7.5043   47.1024   53.6496 C   0  0  0  0  0  0  0  0  0  0  0  0
    8.0786   46.4109   52.4108 C   0  0  0  0  0  0  0  0  0  0  0  0
    9.6057   46.4953   52.3665 C   0  0  0  0  0  0  0  0  0  0  0  0
   10.1712   47.7289   53.0713 C   0  0  0  0  0  0  0  0  0  0  0  0
    9.2114   48.9085   53.0026 C   0  0  0  0  0  0  0  0  0  0  0  0
    7.8688   48.5964   53.6692 C   0  0  0  0  0  0  0  0  0  0  0  0
    3.4253   46.7449   55.7373 H   0  0  0  0  0  0  0  0  0  0  0  0
    3.5402   47.1141   53.9636 H   0  0  0  0  0  0  0  0  0  0  0  0
    4.6390   44.4879   54.5857 H   0  0  0  0  0  0  0  0  0  0  0  0
    2.9180   44.6590   55.1356 H   0  0  0  0  0  0  0  0  0  0  0  0
    2.2354   44.6445   53.0555 H   0  0  0  0  0  0  0  0  0  0  0  0
    7.8830   43.6910   52.2413 H   0  0  0  0  0  0  0  0  0  0  0  0
    9.2116   42.6927   50.3866 H   0  0  0  0  0  0  0  0  0  0  0  0
    8.0901   42.0070   48.2666 H   0  0  0  0  0  0  0  0  0  0  0  0
    5.6247   42.3350   48.0004 H   0  0  0  0  0  0  0  0  0  0  0  0
    2.3553   44.1391   50.8933 H   0  0  0  0  0  0  0  0  0  0  0  0
    5.5830   46.5818   52.9060 H   0  0  0  0  0  0  0  0  0  0  0  0
    7.9547   46.6238   54.5317 H   0  0  0  0  0  0  0  0  0  0  0  0
    7.7811   45.3520   52.4246 H   0  0  0  0  0  0  0  0  0  0  0  0
    7.6830   46.9224   51.5209 H   0  0  0  0  0  0  0  0  0  0  0  0
   10.0178   45.5981   52.8516 H   0  0  0  0  0  0  0  0  0  0  0  0
    9.8943   46.5680   51.3075 H   0  0  0  0  0  0  0  0  0  0  0  0
   10.3571   47.4821   54.1270 H   0  0  0  0  0  0  0  0  0  0  0  0
   11.1033   48.0163   52.5626 H   0  0  0  0  0  0  0  0  0  0  0  0
    9.6694   49.7689   53.5124 H   0  0  0  0  0  0  0  0  0  0  0  0
    9.0205   49.1293   51.9420 H   0  0  0  0  0  0  0  0  0  0  0  0
    7.9149   48.9294   54.7166 H   0  0  0  0  0  0  0  0  0  0  0  0
    7.0933   49.1253   53.0959 H   0  0  0  0  0  0  0  0  0  0  0  0
  1  2  2  0
  2  3  1  0
  3  4  1  0
  4  5  1  0
  5  6  1  0
  6  7  2  0
  7  8  1  0
  8  9  2  0
  9 10  1  0
 10 11  2  0
 11 12  1  0
 12 13  2  0
 13 14  1  0
 14 15  2  0
 14 16  1  0
  2 17  1  0
 17 18  1  0
 18 19  1  0
 19 20  1  0
 20 21  1  0
 21 22  1  0
 22 23  1  0
 16  6  1  0
 23 18  1  0
 13  8  1  0
  3 24  1  0
  3 25  1  0
  4 26  1  0
  4 27  1  0
  5 28  1  0
  9 29  1  0
 10 30  1  0
 11 31  1  0
 12 32  1  0
 16 33  1  0
 17 34  1  0
 18 35  1  0
 19 36  1  0
 19 37  1  0
 20 38  1  0
 20 39  1  0
 21 40  1  0
 21 41  1  0
 22 42  1  0
 22 43  1  0
 23 44  1  0
 23 45  1  0
M  END
>  <meeko>  (510) 
{"is_sidechain": false}

>  <CID>  (510) 
Z990898380

>  <pose_index>  (510) 
3

>  <docking_score>  (510) 
-8.76

>  <rmsd_to_best_selected>  (510) 
1.7513474236193194

>  <MWT>  (510) 
314.38899999999967

>  <TPSA>  (510) 
86.88

>  <logP>  (510) 
2.1739999999999995

>  <HBD>  (510) 
3

>  <HBA>  (510) 
4

>  <SMILES>  (510) 
[H]c1c([H])c([H])c2c(=O)n([H])c(N([H])C([H])([H])C([H])([H])C(=O)N([H])C3([H])C([H])([H])C([H])([H])C([H])([H])C([H])([H])C3([H])[H])nc2c1[H]

$$$$
Z990898380_pose5
     RDKit          3D

 45 47  0  0  0  0  0  0  0  0999 V2000
    5.7207   47.5013   55.7853 O   0  0  0  0  0  0  0  0  0  0  0  0
    5.4484   46.6969   54.8989 C   0  0  0  0  0  0  0  0  0  0  0  0
    4.0875   46.0518   54.7470 C   0  0  0  0  0  0  0  0  0  0  0  0
    3.4347   46.4047   53.4155 C   0  0  0  0  0  0  0  0  0  0  0  0
    2.9810   45.2195   52.7022 N   0  0  0  0  0  0  0  0  0  0  0  0
    3.7747   44.5373   51.8282 C   0  0  0  0  0  0  0  0  0  0  0  0
    4.8929   45.0091   51.3749 N   0  0  0  0  0  0  0  0  0  0  0  0
    5.6418   44.2290   50.4795 C   0  0  0  0  0  0  0  0  0  0  0  0
    6.8470   44.7336   49.9867 C   0  0  0  0  0  0  0  0  0  0  0  0
    7.6211   43.9855   49.0945 C   0  0  0  0  0  0  0  0  0  0  0  0
    7.1949   42.7216   48.6861 C   0  0  0  0  0  0  0  0  0  0  0  0
    5.9936   42.2045   49.1682 C   0  0  0  0  0  0  0  0  0  0  0  0
    5.2297   42.9638   50.0588 C   0  0  0  0  0  0  0  0  0  0  0  0
    3.9549   42.4635   50.5935 C   0  0  0  0  0  0  0  0  0  0  0  0
    3.5018   41.3685   50.2798 O   0  0  0  0  0  0  0  0  0  0  0  0
    3.3108   43.3037   51.4653 N   0  0  0  0  0  0  0  0  0  0  0  0
    6.3514   46.2766   53.9427 N   0  0  0  0  0  0  0  0  0  0  0  0
    7.7521   46.6763   53.9896 C   0  0  0  0  0  0  0  0  0  0  0  0
    8.5572   46.0044   52.8740 C   0  0  0  0  0  0  0  0  0  0  0  0
   10.0485   46.3363   52.9685 C   0  0  0  0  0  0  0  0  0  0  0  0
   10.3345   47.6911   53.6172 C   0  0  0  0  0  0  0  0  0  0  0  0
    9.2167   48.6890   53.3564 C   0  0  0  0  0  0  0  0  0  0  0  0
    7.8748   48.2068   53.9159 C   0  0  0  0  0  0  0  0  0  0  0  0
    4.2033   44.9596   54.8076 H   0  0  0  0  0  0  0  0  0  0  0  0
    3.4408   46.4283   55.5533 H   0  0  0  0  0  0  0  0  0  0  0  0
    2.5704   47.0581   53.6053 H   0  0  0  0  0  0  0  0  0  0  0  0
    4.1856   46.9114   52.7915 H   0  0  0  0  0  0  0  0  0  0  0  0
    2.3367   44.6641   53.2613 H   0  0  0  0  0  0  0  0  0  0  0  0
    7.1906   45.7294   50.3034 H   0  0  0  0  0  0  0  0  0  0  0  0
    8.5685   44.3946   48.7137 H   0  0  0  0  0  0  0  0  0  0  0  0
    7.8058   42.1340   47.9850 H   0  0  0  0  0  0  0  0  0  0  0  0
    5.6503   41.2088   48.8508 H   0  0  0  0  0  0  0  0  0  0  0  0
    2.4233   42.9792   51.8126 H   0  0  0  0  0  0  0  0  0  0  0  0
    6.1151   45.4538   53.4037 H   0  0  0  0  0  0  0  0  0  0  0  0
    8.1736   46.3413   54.9488 H   0  0  0  0  0  0  0  0  0  0  0  0
    8.4297   44.9144   52.9501 H   0  0  0  0  0  0  0  0  0  0  0  0
    8.1842   46.3803   51.9098 H   0  0  0  0  0  0  0  0  0  0  0  0
   10.5416   45.5543   53.5646 H   0  0  0  0  0  0  0  0  0  0  0  0
   10.4341   46.3836   51.9394 H   0  0  0  0  0  0  0  0  0  0  0  0
   10.4406   47.5508   54.7030 H   0  0  0  0  0  0  0  0  0  0  0  0
   11.2601   48.0919   53.1783 H   0  0  0  0  0  0  0  0  0  0  0  0
    9.4767   49.6459   53.8326 H   0  0  0  0  0  0  0  0  0  0  0  0
    9.1096   48.8023   52.2675 H   0  0  0  0  0  0  0  0  0  0  0  0
    7.7546   48.6144   54.9305 H   0  0  0  0  0  0  0  0  0  0  0  0
    7.0931   48.5600   53.2274 H   0  0  0  0  0  0  0  0  0  0  0  0
  1  2  2  0
  2  3  1  0
  3  4  1  0
  4  5  1  0
  5  6  1  0
  6  7  2  0
  7  8  1  0
  8  9  2  0
  9 10  1  0
 10 11  2  0
 11 12  1  0
 12 13  2  0
 13 14  1  0
 14 15  2  0
 14 16  1  0
  2 17  1  0
 17 18  1  0
 18 19  1  0
 19 20  1  0
 20 21  1  0
 21 22  1  0
 22 23  1  0
 16  6  1  0
 23 18  1  0
 13  8  1  0
  3 24  1  0
  3 25  1  0
  4 26  1  0
  4 27  1  0
  5 28  1  0
  9 29  1  0
 10 30  1  0
 11 31  1  0
 12 32  1  0
 16 33  1  0
 17 34  1  0
 18 35  1  0
 19 36  1  0
 19 37  1  0
 20 38  1  0
 20 39  1  0
 21 40  1  0
 21 41  1  0
 22 42  1  0
 22 43  1  0
 23 44  1  0
 23 45  1  0
M  END
>  <meeko>  (511) 
{"is_sidechain": false}

>  <CID>  (511) 
Z990898380

>  <pose_index>  (511) 
5

>  <docking_score>  (511) 
-8.608

>  <rmsd_to_best_selected>  (511) 
1.418696936791304

>  <MWT>  (511) 
314.38899999999967

>  <TPSA>  (511) 
86.88

>  <logP>  (511) 
2.1739999999999995

>  <HBD>  (511) 
3

>  <HBA>  (511) 
4

>  <SMILES>  (511) 
[H]c1c([H])c([H])c2c(=O)n([H])c(N([H])C([H])([H])C([H])([H])C(=O)N([H])C3([H])C([H])([H])C([H])([H])C([H])([H])C([H])([H])C3([H])[H])nc2c1[H]

$$$$
Z990898380_pose6
     RDKit          3D

 45 47  0  0  0  0  0  0  0  0999 V2000
    6.0387   45.8771   56.1680 O   0  0  0  0  0  0  0  0  0  0  0  0
    5.3849   46.2514   55.1986 C   0  0  0  0  0  0  0  0  0  0  0  0
    3.8773   46.1404   55.1148 C   0  0  0  0  0  0  0  0  0  0  0  0
    3.3644   46.3742   53.6991 C   0  0  0  0  0  0  0  0  0  0  0  0
    3.1729   45.1244   52.9773 N   0  0  0  0  0  0  0  0  0  0  0  0
    4.0708   44.6561   52.0631 C   0  0  0  0  0  0  0  0  0  0  0  0
    5.0291   45.3822   51.5814 N   0  0  0  0  0  0  0  0  0  0  0  0
    5.9044   44.8094   50.6458 C   0  0  0  0  0  0  0  0  0  0  0  0
    6.9404   45.5878   50.1213 C   0  0  0  0  0  0  0  0  0  0  0  0
    7.8317   45.0515   49.1883 C   0  0  0  0  0  0  0  0  0  0  0  0
    7.6974   43.7276   48.7688 C   0  0  0  0  0  0  0  0  0  0  0  0
    6.6690   42.9387   49.2813 C   0  0  0  0  0  0  0  0  0  0  0  0
    5.7839   43.4880   50.2134 C   0  0  0  0  0  0  0  0  0  0  0  0
    4.6822   42.6965   50.7807 C   0  0  0  0  0  0  0  0  0  0  0  0
    4.4851   41.5309   50.4610 O   0  0  0  0  0  0  0  0  0  0  0  0
    3.8932   43.3534   51.6915 N   0  0  0  0  0  0  0  0  0  0  0  0
    5.9460   46.8112   54.0670 N   0  0  0  0  0  0  0  0  0  0  0  0
    7.3901   46.8886   53.8910 C   0  0  0  0  0  0  0  0  0  0  0  0
    7.9785   45.5192   53.5397 C   0  0  0  0  0  0  0  0  0  0  0  0
    9.5054   45.5618   53.4480 C   0  0  0  0  0  0  0  0  0  0  0  0
   10.0570   46.9277   53.0383 C   0  0  0  0  0  0  0  0  0  0  0  0
    9.0890   47.6791   52.1357 C   0  0  0  0  0  0  0  0  0  0  0  0
    7.7429   47.9338   52.8203 C   0  0  0  0  0  0  0  0  0  0  0  0
    3.5770   45.1331   55.4393 H   0  0  0  0  0  0  0  0  0  0  0  0
    3.4434   46.9144   55.7650 H   0  0  0  0  0  0  0  0  0  0  0  0
    2.4024   46.9049   53.7525 H   0  0  0  0  0  0  0  0  0  0  0  0
    4.1157   46.9683   53.1582 H   0  0  0  0  0  0  0  0  0  0  0  0
    2.6981   44.4274   53.5468 H   0  0  0  0  0  0  0  0  0  0  0  0
    7.0551   46.6325   50.4462 H   0  0  0  0  0  0  0  0  0  0  0  0
    8.6420   45.6752   48.7831 H   0  0  0  0  0  0  0  0  0  0  0  0
    8.4015   43.3075   48.0353 H   0  0  0  0  0  0  0  0  0  0  0  0
    6.5550   41.8942   48.9556 H   0  0  0  0  0  0  0  0  0  0  0  0
    3.1199   42.8268   52.0625 H   0  0  0  0  0  0  0  0  0  0  0  0
    5.3665   46.8750   53.2401 H   0  0  0  0  0  0  0  0  0  0  0  0
    7.8373   47.2056   54.8448 H   0  0  0  0  0  0  0  0  0  0  0  0
    7.6888   44.7973   54.3175 H   0  0  0  0  0  0  0  0  0  0  0  0
    7.5856   45.2210   52.5565 H   0  0  0  0  0  0  0  0  0  0  0  0
    9.9202   45.3006   54.4327 H   0  0  0  0  0  0  0  0  0  0  0  0
    9.8012   44.8472   52.6658 H   0  0  0  0  0  0  0  0  0  0  0  0
   10.2368   47.5255   53.9440 H   0  0  0  0  0  0  0  0  0  0  0  0
   10.9909   46.7664   52.4800 H   0  0  0  0  0  0  0  0  0  0  0  0
    9.5366   48.6461   51.8625 H   0  0  0  0  0  0  0  0  0  0  0  0
    8.9047   47.0593   51.2458 H   0  0  0  0  0  0  0  0  0  0  0  0
    7.7776   48.9237   53.2986 H   0  0  0  0  0  0  0  0  0  0  0  0
    6.9681   47.8725   52.0419 H   0  0  0  0  0  0  0  0  0  0  0  0
  1  2  2  0
  2  3  1  0
  3  4  1  0
  4  5  1  0
  5  6  1  0
  6  7  2  0
  7  8  1  0
  8  9  2  0
  9 10  1  0
 10 11  2  0
 11 12  1  0
 12 13  2  0
 13 14  1  0
 14 15  2  0
 14 16  1  0
  2 17  1  0
 17 18  1  0
 18 19  1  0
 19 20  1  0
 20 21  1  0
 21 22  1  0
 22 23  1  0
 16  6  1  0
 23 18  1  0
 13  8  1  0
  3 24  1  0
  3 25  1  0
  4 26  1  0
  4 27  1  0
  5 28  1  0
  9 29  1  0
 10 30  1  0
 11 31  1  0
 12 32  1  0
 16 33  1  0
 17 34  1  0
 18 35  1  0
 19 36  1  0
 19 37  1  0
 20 38  1  0
 20 39  1  0
 21 40  1  0
 21 41  1  0
 22 42  1  0
 22 43  1  0
 23 44  1  0
 23 45  1  0
M  END
>  <meeko>  (512) 
{"is_sidechain": false}

>  <CID>  (512) 
Z990898380

>  <pose_index>  (512) 
6

>  <docking_score>  (512) 
-8.456

>  <rmsd_to_best_selected>  (512) 
1.1373847998747566

>  <MWT>  (512) 
314.38899999999967

>  <TPSA>  (512) 
86.88

>  <logP>  (512) 
2.1739999999999995

>  <HBD>  (512) 
3

>  <HBA>  (512) 
4

>  <SMILES>  (512) 
[H]c1c([H])c([H])c2c(=O)n([H])c(N([H])C([H])([H])C([H])([H])C(=O)N([H])C3([H])C([H])([H])C([H])([H])C([H])([H])C([H])([H])C3([H])[H])nc2c1[H]

$$$$
Z990898380_pose7
     RDKit          3D

 45 47  0  0  0  0  0  0  0  0999 V2000
    5.4243   45.6000   55.5740 O   0  0  0  0  0  0  0  0  0  0  0  0
    5.0838   46.4526   54.7586 C   0  0  0  0  0  0  0  0  0  0  0  0
    3.6527   46.9112   54.5769 C   0  0  0  0  0  0  0  0  0  0  0  0
    2.9884   46.2452   53.3784 C   0  0  0  0  0  0  0  0  0  0  0  0
    3.3758   44.8480   53.2482 N   0  0  0  0  0  0  0  0  0  0  0  0
    4.2704   44.4166   52.3138 C   0  0  0  0  0  0  0  0  0  0  0  0
    4.6598   45.1490   51.3186 N   0  0  0  0  0  0  0  0  0  0  0  0
    5.5859   44.6152   50.4096 C   0  0  0  0  0  0  0  0  0  0  0  0
    6.0094   45.4010   49.3337 C   0  0  0  0  0  0  0  0  0  0  0  0
    6.9313   44.9041   48.4078 C   0  0  0  0  0  0  0  0  0  0  0  0
    7.4411   43.6130   48.5494 C   0  0  0  0  0  0  0  0  0  0  0  0
    7.0290   42.8167   49.6164 C   0  0  0  0  0  0  0  0  0  0  0  0
    6.1053   43.3268   50.5341 C   0  0  0  0  0  0  0  0  0  0  0  0
    5.6378   42.5246   51.6744 C   0  0  0  0  0  0  0  0  0  0  0  0
    6.0270   41.3790   51.8687 O   0  0  0  0  0  0  0  0  0  0  0  0
    4.7398   43.1468   52.5034 N   0  0  0  0  0  0  0  0  0  0  0  0
    5.9650   47.0898   53.9068 N   0  0  0  0  0  0  0  0  0  0  0  0
    7.3669   46.7008   53.8303 C   0  0  0  0  0  0  0  0  0  0  0  0
    7.6981   46.0934   52.4649 C   0  0  0  0  0  0  0  0  0  0  0  0
    9.1425   45.5894   52.4008 C   0  0  0  0  0  0  0  0  0  0  0  0
   10.0976   46.3497   53.3217 C   0  0  0  0  0  0  0  0  0  0  0  0
    9.6670   47.7976   53.5109 C   0  0  0  0  0  0  0  0  0  0  0  0
    8.2729   47.9056   54.1348 C   0  0  0  0  0  0  0  0  0  0  0  0
    3.0819   46.6616   55.4835 H   0  0  0  0  0  0  0  0  0  0  0  0
    3.6634   47.9968   54.4001 H   0  0  0  0  0  0  0  0  0  0  0  0
    1.8966   46.3014   53.5005 H   0  0  0  0  0  0  0  0  0  0  0  0
    3.3143   46.7747   52.4709 H   0  0  0  0  0  0  0  0  0  0  0  0
    3.3949   44.3744   54.1492 H   0  0  0  0  0  0  0  0  0  0  0  0
    5.6133   46.4202   49.2146 H   0  0  0  0  0  0  0  0  0  0  0  0
    7.2558   45.5327   47.5654 H   0  0  0  0  0  0  0  0  0  0  0  0
    8.1671   43.2243   47.8200 H   0  0  0  0  0  0  0  0  0  0  0  0
    7.4260   41.7978   49.7353 H   0  0  0  0  0  0  0  0  0  0  0  0
    4.3933   42.5936   53.2697 H   0  0  0  0  0  0  0  0  0  0  0  0
    5.5743   47.5985   53.1241 H   0  0  0  0  0  0  0  0  0  0  0  0
    7.5525   45.9269   54.5897 H   0  0  0  0  0  0  0  0  0  0  0  0
    7.0181   45.2496   52.2764 H   0  0  0  0  0  0  0  0  0  0  0  0
    7.5761   46.8780   51.7036 H   0  0  0  0  0  0  0  0  0  0  0  0
    9.1535   44.5277   52.6885 H   0  0  0  0  0  0  0  0  0  0  0  0
    9.4939   45.7473   51.3704 H   0  0  0  0  0  0  0  0  0  0  0  0
   10.1172   45.8529   54.3029 H   0  0  0  0  0  0  0  0  0  0  0  0
   11.0949   46.3472   52.8576 H   0  0  0  0  0  0  0  0  0  0  0  0
   10.3906   48.2999   54.1697 H   0  0  0  0  0  0  0  0  0  0  0  0
    9.6332   48.2738   52.5199 H   0  0  0  0  0  0  0  0  0  0  0  0
    8.3857   47.9889   55.2258 H   0  0  0  0  0  0  0  0  0  0  0  0
    7.7905   48.7911   53.6951 H   0  0  0  0  0  0  0  0  0  0  0  0
  1  2  2  0
  2  3  1  0
  3  4  1  0
  4  5  1  0
  5  6  1  0
  6  7  2  0
  7  8  1  0
  8  9  2  0
  9 10  1  0
 10 11  2  0
 11 12  1  0
 12 13  2  0
 13 14  1  0
 14 15  2  0
 14 16  1  0
  2 17  1  0
 17 18  1  0
 18 19  1  0
 19 20  1  0
 20 21  1  0
 21 22  1  0
 22 23  1  0
 16  6  1  0
 23 18  1  0
 13  8  1  0
  3 24  1  0
  3 25  1  0
  4 26  1  0
  4 27  1  0
  5 28  1  0
  9 29  1  0
 10 30  1  0
 11 31  1  0
 12 32  1  0
 16 33  1  0
 17 34  1  0
 18 35  1  0
 19 36  1  0
 19 37  1  0
 20 38  1  0
 20 39  1  0
 21 40  1  0
 21 41  1  0
 22 42  1  0
 22 43  1  0
 23 44  1  0
 23 45  1  0
M  END
>  <meeko>  (513) 
{"is_sidechain": false}

>  <CID>  (513) 
Z990898380

>  <pose_index>  (513) 
7

>  <docking_score>  (513) 
-8.443

>  <rmsd_to_best_selected>  (513) 
1.2546996492346563

>  <MWT>  (513) 
314.38899999999967

>  <TPSA>  (513) 
86.88

>  <logP>  (513) 
2.1739999999999995

>  <HBD>  (513) 
3

>  <HBA>  (513) 
4

>  <SMILES>  (513) 
[H]c1c([H])c([H])c2c(=O)n([H])c(N([H])C([H])([H])C([H])([H])C(=O)N([H])C3([H])C([H])([H])C([H])([H])C([H])([H])C([H])([H])C3([H])[H])nc2c1[H]

$$$$
Z990898380_pose9
     RDKit          3D

 45 47  0  0  0  0  0  0  0  0999 V2000
    5.0950   48.8995   53.8590 O   0  0  0  0  0  0  0  0  0  0  0  0
    5.0230   47.6754   53.8013 C   0  0  0  0  0  0  0  0  0  0  0  0
    3.7274   46.9056   53.9497 C   0  0  0  0  0  0  0  0  0  0  0  0
    3.9612   45.4809   54.4352 C   0  0  0  0  0  0  0  0  0  0  0  0
    3.3927   44.4960   53.5264 N   0  0  0  0  0  0  0  0  0  0  0  0
    4.0702   44.0128   52.4464 C   0  0  0  0  0  0  0  0  0  0  0  0
    5.1583   44.5539   51.9980 N   0  0  0  0  0  0  0  0  0  0  0  0
    5.7848   43.9811   50.8795 C   0  0  0  0  0  0  0  0  0  0  0  0
    6.9583   44.5604   50.3899 C   0  0  0  0  0  0  0  0  0  0  0  0
    7.6108   44.0179   49.2789 C   0  0  0  0  0  0  0  0  0  0  0  0
    7.0949   42.8862   48.6452 C   0  0  0  0  0  0  0  0  0  0  0  0
    5.9245   42.2974   49.1209 C   0  0  0  0  0  0  0  0  0  0  0  0
    5.2824   42.8510   50.2327 C   0  0  0  0  0  0  0  0  0  0  0  0
    4.0443   42.2682   50.7697 C   0  0  0  0  0  0  0  0  0  0  0  0
    3.5176   41.2815   50.2687 O   0  0  0  0  0  0  0  0  0  0  0  0
    3.5226   42.9027   51.8684 N   0  0  0  0  0  0  0  0  0  0  0  0
    6.1153   46.8537   53.6009 N   0  0  0  0  0  0  0  0  0  0  0  0
    7.4721   47.3850   53.5647 C   0  0  0  0  0  0  0  0  0  0  0  0
    8.4421   46.4775   54.3239 C   0  0  0  0  0  0  0  0  0  0  0  0
    9.8520   47.0703   54.3799 C   0  0  0  0  0  0  0  0  0  0  0  0
   10.1828   47.9756   53.1927 C   0  0  0  0  0  0  0  0  0  0  0  0
    9.4471   47.5456   51.9322 C   0  0  0  0  0  0  0  0  0  0  0  0
    7.9273   47.5891   52.1109 C   0  0  0  0  0  0  0  0  0  0  0  0
    3.0858   47.4270   54.6753 H   0  0  0  0  0  0  0  0  0  0  0  0
    3.2490   46.8527   52.9606 H   0  0  0  0  0  0  0  0  0  0  0  0
    5.0443   45.3064   54.5161 H   0  0  0  0  0  0  0  0  0  0  0  0
    3.4667   45.3687   55.4114 H   0  0  0  0  0  0  0  0  0  0  0  0
    2.7815   43.8419   54.0117 H   0  0  0  0  0  0  0  0  0  0  0  0
    7.3726   45.4520   50.8833 H   0  0  0  0  0  0  0  0  0  0  0  0
    8.5335   44.4842   48.9030 H   0  0  0  0  0  0  0  0  0  0  0  0
    7.6108   42.4599   47.7723 H   0  0  0  0  0  0  0  0  0  0  0  0
    5.5102   41.4063   48.6267 H   0  0  0  0  0  0  0  0  0  0  0  0
    2.6599   42.5259   52.2238 H   0  0  0  0  0  0  0  0  0  0  0  0
    6.0020   45.8674   53.7962 H   0  0  0  0  0  0  0  0  0  0  0  0
    7.4729   48.3630   54.0683 H   0  0  0  0  0  0  0  0  0  0  0  0
    8.0723   46.3416   55.3509 H   0  0  0  0  0  0  0  0  0  0  0  0
    8.4971   45.5161   53.7921 H   0  0  0  0  0  0  0  0  0  0  0  0
    9.9448   47.6604   55.3036 H   0  0  0  0  0  0  0  0  0  0  0  0
   10.5580   46.2273   54.3495 H   0  0  0  0  0  0  0  0  0  0  0  0
    9.8925   49.0074   53.4400 H   0  0  0  0  0  0  0  0  0  0  0  0
   11.2633   47.9045   52.9991 H   0  0  0  0  0  0  0  0  0  0  0  0
    9.7273   48.2205   51.1100 H   0  0  0  0  0  0  0  0  0  0  0  0
    9.7331   46.5069   51.7099 H   0  0  0  0  0  0  0  0  0  0  0  0
    7.5647   48.5692   51.7675 H   0  0  0  0  0  0  0  0  0  0  0  0
    7.5096   46.7587   51.5228 H   0  0  0  0  0  0  0  0  0  0  0  0
  1  2  2  0
  2  3  1  0
  3  4  1  0
  4  5  1  0
  5  6  1  0
  6  7  2  0
  7  8  1  0
  8  9  2  0
  9 10  1  0
 10 11  2  0
 11 12  1  0
 12 13  2  0
 13 14  1  0
 14 15  2  0
 14 16  1  0
  2 17  1  0
 17 18  1  0
 18 19  1  0
 19 20  1  0
 20 21  1  0
 21 22  1  0
 22 23  1  0
 16  6  1  0
 23 18  1  0
 13  8  1  0
  3 24  1  0
  3 25  1  0
  4 26  1  0
  4 27  1  0
  5 28  1  0
  9 29  1  0
 10 30  1  0
 11 31  1  0
 12 32  1  0
 16 33  1  0
 17 34  1  0
 18 35  1  0
 19 36  1  0
 19 37  1  0
 20 38  1  0
 20 39  1  0
 21 40  1  0
 21 41  1  0
 22 42  1  0
 22 43  1  0
 23 44  1  0
 23 45  1  0
M  END
>  <meeko>  (514) 
{"is_sidechain": false}

>  <CID>  (514) 
Z990898380

>  <pose_index>  (514) 
9

>  <docking_score>  (514) 
-8.267

>  <rmsd_to_best_selected>  (514) 
1.4246975893300575

>  <MWT>  (514) 
314.38899999999967

>  <TPSA>  (514) 
86.88

>  <logP>  (514) 
2.1739999999999995

>  <HBD>  (514) 
3

>  <HBA>  (514) 
4

>  <SMILES>  (514) 
[H]c1c([H])c([H])c2c(=O)n([H])c(N([H])C([H])([H])C([H])([H])C(=O)N([H])C3([H])C([H])([H])C([H])([H])C([H])([H])C([H])([H])C3([H])[H])nc2c1[H]

$$$$
