123658957_pose1
     RDKit          3D

 46 49  0  0  0  0  0  0  0  0999 V2000
    7.0200   40.7780   49.3330 F   0  0  0  0  0  0  0  0  0  0  0  0
    6.1380   41.6470   49.8430 C   0  0  0  0  0  0  0  0  0  0  0  0
    4.9140   41.1670   50.2980 C   0  0  0  0  0  0  0  0  0  0  0  0
    3.9750   42.0490   50.8430 C   0  0  0  0  0  0  0  0  0  0  0  0
    4.2610   43.4210   50.9390 C   0  0  0  0  0  0  0  0  0  0  0  0
    3.3600   44.3560   51.4860 N   0  0  0  0  0  0  0  0  0  0  0  0
    3.2840   44.8590   52.7850 C   0  0  0  0  0  0  0  0  0  0  0  0
    2.1490   44.6610   53.4630 N   0  0  0  0  0  0  0  0  0  0  0  0
    2.1550   45.1940   54.6970 C   0  0  0  0  0  0  0  0  0  0  0  0
    1.1420   45.1170   55.5980 N   0  0  0  0  0  0  0  0  0  0  0  0
    1.5670   45.7670   56.6590 C   0  0  0  0  0  0  0  0  0  0  0  0
    2.8290   46.2650   56.4720 N   0  0  0  0  0  0  0  0  0  0  0  0
    3.2240   45.9040   55.2100 C   0  0  0  0  0  0  0  0  0  0  0  0
    4.3580   46.1090   54.4510 C   0  0  0  0  0  0  0  0  0  0  0  0
    5.4000   46.8250   54.9890 O   0  0  0  0  0  0  0  0  0  0  0  0
    6.7100   46.4200   54.6080 C   0  0  0  0  0  0  0  0  0  0  0  0
    7.4690   47.5570   53.8940 C   0  0  0  0  0  0  0  0  0  0  0  0
    8.9640   47.5990   54.2560 C   0  0  0  0  0  0  0  0  0  0  0  0
    9.8280   46.5970   53.4940 C   0  0  0  0  0  0  0  0  0  0  0  0
    9.6100   46.6910   51.9890 C   0  0  0  0  0  0  0  0  0  0  0  0
    8.1390   46.5490   51.6180 C   0  0  0  0  0  0  0  0  0  0  0  0
    7.2650   47.5500   52.3700 C   0  0  0  0  0  0  0  0  0  0  0  0
    4.3300   45.5570   53.2380 N   0  0  0  0  0  4  0  0  0  0  0  0
    5.4930   43.8880   50.4580 C   0  0  0  0  0  0  0  0  0  0  0  0
    6.4320   43.0040   49.9170 C   0  0  0  0  0  0  0  0  0  0  0  0
    7.9400   43.6110   49.3600 Cl  0  0  0  0  0  0  0  0  0  0  0  0
    4.6846   40.0934   50.2291 H   0  0  0  0  0  0  0  0  0  0  0  0
    3.0070   41.6660   51.1985 H   0  0  0  0  0  0  0  0  0  0  0  0
    2.4070   44.2200   51.1360 H   0  0  0  0  0  0  0  0  0  0  0  0
    0.9819   45.8948   57.5817 H   0  0  0  0  0  0  0  0  0  0  0  0
    3.3590   46.8030   57.1490 H   0  0  0  0  0  0  0  0  0  0  0  0
    7.2696   46.1275   55.5087 H   0  0  0  0  0  0  0  0  0  0  0  0
    6.6201   45.5743   53.9103 H   0  0  0  0  0  0  0  0  0  0  0  0
    7.0184   48.4855   54.2747 H   0  0  0  0  0  0  0  0  0  0  0  0
    9.3410   48.6101   54.0425 H   0  0  0  0  0  0  0  0  0  0  0  0
    9.0361   47.3290   55.3199 H   0  0  0  0  0  0  0  0  0  0  0  0
   10.8865   46.8001   53.7138 H   0  0  0  0  0  0  0  0  0  0  0  0
    9.5440   45.5849   53.8180 H   0  0  0  0  0  0  0  0  0  0  0  0
    9.9727   47.6682   51.6375 H   0  0  0  0  0  0  0  0  0  0  0  0
   10.1628   45.8680   51.5124 H   0  0  0  0  0  0  0  0  0  0  0  0
    8.0264   46.7196   50.5372 H   0  0  0  0  0  0  0  0  0  0  0  0
    7.8131   45.5354   51.8945 H   0  0  0  0  0  0  0  0  0  0  0  0
    7.4902   48.5569   51.9887 H   0  0  0  0  0  0  0  0  0  0  0  0
    6.2220   47.2470   52.1957 H   0  0  0  0  0  0  0  0  0  0  0  0
    5.0970   45.6630   52.5890 H   0  0  0  0  0  0  0  0  0  0  0  0
    5.7234   44.9625   50.5069 H   0  0  0  0  0  0  0  0  0  0  0  0
  1  2  1  0
  2  3  2  0
  3  4  1  0
  4  5  2  0
  5  6  1  0
  6  7  1  0
  7  8  2  0
  8  9  1  0
  9 10  1  0
 10 11  2  0
 11 12  1  0
 12 13  1  0
 13 14  1  0
 14 15  1  0
 15 16  1  0
 16 17  1  0
 17 18  1  0
 18 19  1  0
 19 20  1  0
 20 21  1  0
 21 22  1  0
 14 23  2  0
  5 24  1  0
 24 25  2  0
 25 26  1  0
 25  2  1  0
 23  7  1  0
 13  9  2  0
 22 17  1  0
  3 27  1  0
  4 28  1  0
  6 29  1  0
 11 30  1  0
 12 31  1  0
 16 32  1  0
 16 33  1  0
 17 34  1  0
 18 35  1  0
 18 36  1  0
 19 37  1  0
 19 38  1  0
 20 39  1  0
 20 40  1  0
 21 41  1  0
 21 42  1  0
 22 43  1  0
 22 44  1  0
 23 45  1  0
 24 46  1  0
M  CHG  1  23   1
M  END
>  <meeko>  (1) 
{"is_sidechain": false}

>  <CID>  (1) 
123658957

>  <pose_index>  (1) 
1

>  <docking_score>  (1) 
-9.574

>  <num_viable_poses>  (1) 
5

>  <rmsd_pairwise_std>  (1) 
0.30476185584869636

>  <rmsd_to_best_std>  (1) 
0.4291486430324101

>  <MWT>  (1) 
376.84299999999973

>  <TPSA>  (1) 
76.97

>  <logP>  (1) 
4.2672000000000025

>  <HBD>  (1) 
2

>  <HBA>  (1) 
4

>  <SMILES>  (1) 
[H]c1c([H])c(N([H])c2nc3nc([H])n([H])c3c(OC([H])([H])C3([H])C([H])([H])C([H])([H])C([H])([H])C([H])([H])C3([H])[H])[n+]2[H])c([H])c(Cl)c1F

$$$$
123953120_pose1
     RDKit          3D

 46 49  0  0  0  0  0  0  0  0999 V2000
    7.8970   43.0510   48.4810 F   0  0  0  0  0  0  0  0  0  0  0  0
    6.8610   43.0480   49.3260 C   0  0  0  0  0  0  0  0  0  0  0  0
    6.4520   44.2360   49.9170 C   0  0  0  0  0  0  0  0  0  0  0  0
    5.3730   44.2260   50.8010 C   0  0  0  0  0  0  0  0  0  0  0  0
    4.6860   43.0350   51.0850 C   0  0  0  0  0  0  0  0  0  0  0  0
    3.6070   43.0890   51.9830 N   0  0  0  0  0  0  0  0  0  0  0  0
    3.4360   43.8830   53.1200 C   0  0  0  0  0  0  0  0  0  0  0  0
    2.1950   44.0220   53.6050 N   0  0  0  0  0  0  0  0  0  0  0  0
    2.1210   44.7800   54.7140 C   0  0  0  0  0  0  0  0  0  0  0  0
    0.9820   45.0970   55.3840 N   0  0  0  0  0  0  0  0  0  0  0  0
    1.3690   45.8470   56.3960 C   0  0  0  0  0  0  0  0  0  0  0  0
    2.7270   46.0340   56.3980 N   0  0  0  0  0  0  0  0  0  0  0  0
    3.2310   45.3340   55.3310 C   0  0  0  0  0  0  0  0  0  0  0  0
    4.4880   45.1020   54.8160 C   0  0  0  0  0  0  0  0  0  0  0  0
    5.6190   45.6530   55.3550 O   0  0  0  0  0  0  0  0  0  0  0  0
    6.0530   46.7810   54.5720 C   0  0  0  0  0  0  0  0  0  0  0  0
    7.3960   46.4310   53.9110 C   0  0  0  0  0  0  0  0  0  0  0  0
    7.3570   46.7260   52.4060 C   0  0  0  0  0  0  0  0  0  0  0  0
    8.6890   46.3960   51.7370 C   0  0  0  0  0  0  0  0  0  0  0  0
    9.8490   47.1300   52.4040 C   0  0  0  0  0  0  0  0  0  0  0  0
    9.8980   46.8500   53.9030 C   0  0  0  0  0  0  0  0  0  0  0  0
    8.5680   47.1680   54.5810 C   0  0  0  0  0  0  0  0  0  0  0  0
    4.5310   44.3890   53.6940 N   0  0  0  0  0  4  0  0  0  0  0  0
    5.1230   41.8430   50.4830 C   0  0  0  0  0  0  0  0  0  0  0  0
    6.2080   41.8520   49.6020 C   0  0  0  0  0  0  0  0  0  0  0  0
    6.9744   45.1770   49.6900 H   0  0  0  0  0  0  0  0  0  0  0  0
    5.0563   45.1633   51.2818 H   0  0  0  0  0  0  0  0  0  0  0  0
    2.7060   42.9820   51.5070 H   0  0  0  0  0  0  0  0  0  0  0  0
    0.6862   46.2710   57.1470 H   0  0  0  0  0  0  0  0  0  0  0  0
    3.2490   46.5690   57.0830 H   0  0  0  0  0  0  0  0  0  0  0  0
    5.3052   47.0037   53.7967 H   0  0  0  0  0  0  0  0  0  0  0  0
    6.1705   47.6639   55.2175 H   0  0  0  0  0  0  0  0  0  0  0  0
    7.5605   45.3522   54.0495 H   0  0  0  0  0  0  0  0  0  0  0  0
    6.5645   46.1195   51.9432 H   0  0  0  0  0  0  0  0  0  0  0  0
    7.1585   47.7993   52.2695 H   0  0  0  0  0  0  0  0  0  0  0  0
    8.8648   45.3124   51.8066 H   0  0  0  0  0  0  0  0  0  0  0  0
    8.6360   46.7183   50.6866 H   0  0  0  0  0  0  0  0  0  0  0  0
   10.7927   46.7976   51.9470 H   0  0  0  0  0  0  0  0  0  0  0  0
    9.7037   48.2106   52.2587 H   0  0  0  0  0  0  0  0  0  0  0  0
   10.1325   45.7867   54.0595 H   0  0  0  0  0  0  0  0  0  0  0  0
   10.6715   47.4940   54.3468 H   0  0  0  0  0  0  0  0  0  0  0  0
    8.6242   46.8628   55.6363 H   0  0  0  0  0  0  0  0  0  0  0  0
    8.3882   48.2495   54.4918 H   0  0  0  0  0  0  0  0  0  0  0  0
    5.4200   44.1960   53.2520 H   0  0  0  0  0  0  0  0  0  0  0  0
    4.6081   40.8970   50.7064 H   0  0  0  0  0  0  0  0  0  0  0  0
    6.5437   40.9172   49.1292 H   0  0  0  0  0  0  0  0  0  0  0  0
  1  2  1  0
  2  3  2  0
  3  4  1  0
  4  5  2  0
  5  6  1  0
  6  7  1  0
  7  8  2  0
  8  9  1  0
  9 10  1  0
 10 11  2  0
 11 12  1  0
 12 13  1  0
 13 14  1  0
 14 15  1  0
 15 16  1  0
 16 17  1  0
 17 18  1  0
 18 19  1  0
 19 20  1  0
 20 21  1  0
 21 22  1  0
 14 23  2  0
  5 24  1  0
 24 25  2  0
 25  2  1  0
 23  7  1  0
 13  9  2  0
 22 17  1  0
  3 26  1  0
  4 27  1  0
  6 28  1  0
 11 29  1  0
 12 30  1  0
 16 31  1  0
 16 32  1  0
 17 33  1  0
 18 34  1  0
 18 35  1  0
 19 36  1  0
 19 37  1  0
 20 38  1  0
 20 39  1  0
 21 40  1  0
 21 41  1  0
 22 42  1  0
 22 43  1  0
 23 44  1  0
 24 45  1  0
 25 46  1  0
M  CHG  1  23   1
M  END
>  <meeko>  (2) 
{"is_sidechain": false}

>  <CID>  (2) 
123953120

>  <pose_index>  (2) 
1

>  <docking_score>  (2) 
-9.798

>  <num_viable_poses>  (2) 
5

>  <rmsd_pairwise_std>  (2) 
0.300796702574203

>  <rmsd_to_best_std>  (2) 
0.11052906438354214

>  <MWT>  (2) 
342.3979999999997

>  <TPSA>  (2) 
76.97

>  <logP>  (2) 
3.613800000000002

>  <HBD>  (2) 
2

>  <HBA>  (2) 
4

>  <SMILES>  (2) 
[H]c1c([H])c(N([H])c2nc3nc([H])n([H])c3c(OC([H])([H])C3([H])C([H])([H])C([H])([H])C([H])([H])C([H])([H])C3([H])[H])[n+]2[H])c([H])c([H])c1F

$$$$
46927371_pose3
     RDKit          3D

 58 62  0  0  0  0  0  0  0  0999 V2000
    3.2110   43.4243   52.7379 C   0  0  0  0  0  0  0  0  0  0  0  0
    2.4599   44.5409   53.4143 C   0  0  0  0  0  0  0  0  0  0  0  0
    1.0538   44.5641   53.3037 C   0  0  0  0  0  0  0  0  0  0  0  0
    0.2659   45.5585   53.8990 C   0  0  0  0  0  0  0  0  0  0  0  0
   -1.1247   45.5115   53.7501 N   0  0  0  0  0  0  0  0  0  0  0  0
   -1.9939   46.2195   54.7140 C   0  0  0  0  0  0  0  0  0  0  0  0
   -2.6756   45.2229   55.6618 C   0  0  0  0  0  0  0  0  0  0  0  0
   -3.5128   44.2669   54.9864 O   0  0  0  0  0  0  0  0  0  0  0  0
   -3.1330   44.0505   53.6177 C   0  0  0  0  0  0  0  0  0  0  0  0
   -1.6184   44.1599   53.3804 C   0  0  0  0  0  0  0  0  0  0  0  0
    0.9396   46.5433   54.6245 C   0  0  0  0  0  0  0  0  0  0  0  0
    2.3379   46.5338   54.7439 C   0  0  0  0  0  0  0  0  0  0  0  0
    3.1274   45.5566   54.1308 C   0  0  0  0  0  0  0  0  0  0  0  0
    4.5220   45.5172   54.2634 N   0  0  0  0  0  0  0  0  0  0  0  0
    5.5870   46.0756   53.5551 C   0  0  0  0  0  0  0  0  0  0  0  0
    6.1988   45.3894   52.5670 N   0  0  0  0  0  0  0  0  0  0  0  0
    7.1941   45.9711   51.8725 C   0  0  0  0  0  0  0  0  0  0  0  0
    7.8368   45.3283   50.8372 O   0  0  0  0  0  0  0  0  0  0  0  0
    8.1617   43.9498   51.0891 C   0  0  0  0  0  0  0  0  0  0  0  0
    7.3970   43.0187   50.1266 C   0  0  0  0  0  0  0  0  0  0  0  0
    8.2083   42.6837   48.8792 C   0  0  0  0  0  0  0  0  0  0  0  0
    9.5201   41.9760   49.2281 C   0  0  0  0  0  0  0  0  0  0  0  0
   10.1121   42.4165   50.5672 C   0  0  0  0  0  0  0  0  0  0  0  0
    9.6881   43.8341   50.9239 C   0  0  0  0  0  0  0  0  0  0  0  0
    7.5461   47.2507   52.2085 C   0  0  0  0  0  0  0  0  0  0  0  0
    8.4632   48.1523   51.7547 N   0  0  0  0  0  0  0  0  0  0  0  0
    8.3274   49.2846   52.5124 C   0  0  0  0  0  0  0  0  0  0  0  0
    7.3763   49.1566   53.4131 N   0  0  0  0  0  0  0  0  0  0  0  0
    6.8810   47.8907   53.2287 C   0  0  0  0  0  0  0  0  0  0  0  0
    5.8842   47.3292   53.9254 N   0  0  0  0  0  0  0  0  0  0  0  0
    4.2790   43.4940   52.9921 H   0  0  0  0  0  0  0  0  0  0  0  0
    2.8153   42.4565   53.0796 H   0  0  0  0  0  0  0  0  0  0  0  0
    3.0874   43.5067   51.6479 H   0  0  0  0  0  0  0  0  0  0  0  0
    0.5561   43.7703   52.7274 H   0  0  0  0  0  0  0  0  0  0  0  0
   -1.3842   46.9198   55.3038 H   0  0  0  0  0  0  0  0  0  0  0  0
   -2.7695   46.7655   54.1568 H   0  0  0  0  0  0  0  0  0  0  0  0
   -1.8952   44.6754   56.2107 H   0  0  0  0  0  0  0  0  0  0  0  0
   -3.3258   45.8062   56.3304 H   0  0  0  0  0  0  0  0  0  0  0  0
   -3.4609   43.0436   53.3199 H   0  0  0  0  0  0  0  0  0  0  0  0
   -3.6135   44.8381   53.0188 H   0  0  0  0  0  0  0  0  0  0  0  0
   -1.1016   43.4067   53.9932 H   0  0  0  0  0  0  0  0  0  0  0  0
   -1.4147   43.9890   52.3130 H   0  0  0  0  0  0  0  0  0  0  0  0
    0.3625   47.3427   55.1124 H   0  0  0  0  0  0  0  0  0  0  0  0
    2.8276   47.3194   55.3380 H   0  0  0  0  0  0  0  0  0  0  0  0
    4.8951   44.8386   54.9106 H   0  0  0  0  0  0  0  0  0  0  0  0
    7.8610   43.6382   52.1002 H   0  0  0  0  0  0  0  0  0  0  0  0
    7.1575   42.0838   50.6545 H   0  0  0  0  0  0  0  0  0  0  0  0
    6.4852   43.5429   49.8045 H   0  0  0  0  0  0  0  0  0  0  0  0
    7.6101   42.0261   48.2313 H   0  0  0  0  0  0  0  0  0  0  0  0
    8.4534   43.6260   48.3672 H   0  0  0  0  0  0  0  0  0  0  0  0
    9.3313   40.8931   49.2700 H   0  0  0  0  0  0  0  0  0  0  0  0
   10.2491   42.2419   48.4484 H   0  0  0  0  0  0  0  0  0  0  0  0
    9.7655   41.7307   51.3544 H   0  0  0  0  0  0  0  0  0  0  0  0
   11.2088   42.3942   50.4843 H   0  0  0  0  0  0  0  0  0  0  0  0
   10.1714   44.1232   51.8688 H   0  0  0  0  0  0  0  0  0  0  0  0
    9.9947   44.4994   50.1033 H   0  0  0  0  0  0  0  0  0  0  0  0
    9.1187   48.0062   50.9985 H   0  0  0  0  0  0  0  0  0  0  0  0
    8.9384   50.1903   52.3841 H   0  0  0  0  0  0  0  0  0  0  0  0
  1  2  1  0
  2  3  2  0
  3  4  1  0
  4  5  1  0
  5  6  1  0
  6  7  1  0
  7  8  1  0
  8  9  1  0
  9 10  1  0
  4 11  2  0
 11 12  1  0
 12 13  2  0
 13 14  1  0
 14 15  1  0
 15 16  2  0
 16 17  1  0
 17 18  1  0
 18 19  1  0
 19 20  1  0
 20 21  1  0
 21 22  1  0
 22 23  1  0
 23 24  1  0
 17 25  2  0
 25 26  1  0
 26 27  1  0
 27 28  2  0
 28 29  1  0
 29 30  2  0
 13  2  1  0
 30 15  1  0
 10  5  1  0
 24 19  1  0
 29 25  1  0
  1 31  1  0
  1 32  1  0
  1 33  1  0
  3 34  1  0
  6 35  1  0
  6 36  1  0
  7 37  1  0
  7 38  1  0
  9 39  1  0
  9 40  1  0
 10 41  1  0
 10 42  1  0
 11 43  1  0
 12 44  1  0
 14 45  1  0
 19 46  1  0
 20 47  1  0
 20 48  1  0
 21 49  1  0
 21 50  1  0
 22 51  1  0
 22 52  1  0
 23 53  1  0
 23 54  1  0
 24 55  1  0
 24 56  1  0
 26 57  1  0
 27 58  1  0
M  END
>  <meeko>  (3) 
{"is_sidechain": false}

>  <CID>  (3) 
46927371

>  <pose_index>  (3) 
3

>  <docking_score>  (3) 
-9.453

>  <num_viable_poses>  (3) 
5

>  <rmsd_pairwise_std>  (3) 
0.2403679235341323

>  <rmsd_to_best_std>  (3) 
0.12636798371534133

>  <MWT>  (3) 
408.50599999999963

>  <TPSA>  (3) 
88.19000000000001

>  <logP>  (3) 
3.953020000000002

>  <HBD>  (3) 
2

>  <HBA>  (3) 
7

>  <SMILES>  (3) 
[H]c1c([H])c(N2C([H])([H])C([H])([H])OC([H])([H])C2([H])[H])c([H])c(C([H])([H])[H])c1N([H])c1nc(OC2([H])C([H])([H])C([H])([H])C([H])([H])C([H])([H])C2([H])[H])c2c(n1)nc([H])n2[H]

$$$$
49863194_pose1
     RDKit          3D

 37 40  0  0  0  0  0  0  0  0999 V2000
    5.2090   41.0980   49.0130 C   0  0  0  0  0  0  0  0  0  0  0  0
    4.1990   41.1290   49.9710 C   0  0  0  0  0  0  0  0  0  0  0  0
    4.1310   42.1800   50.8910 C   0  0  0  0  0  0  0  0  0  0  0  0
    5.0750   43.2180   50.8640 C   0  0  0  0  0  0  0  0  0  0  0  0
    5.0470   44.3430   51.8070 C   0  0  0  0  0  0  0  0  0  0  0  0
    3.9840   45.0770   52.1030 N   0  0  0  0  0  0  0  0  0  0  0  0
    4.4040   46.0060   53.0140 C   0  0  0  0  0  0  0  0  0  0  0  0
    3.6400   46.9530   53.5860 N   0  0  0  0  0  0  0  0  0  0  0  0
    4.3260   47.7210   54.4430 C   0  0  0  0  0  0  0  0  0  0  0  0
    5.6330   47.6450   54.7710 N   0  0  0  0  0  0  0  0  0  0  0  0
    6.3700   46.6860   54.1780 C   0  0  0  0  0  0  0  0  0  0  0  0
    7.7100   46.5260   54.4510 O   0  0  0  0  0  0  0  0  0  0  0  0
    8.5170   47.6670   54.1360 C   0  0  0  0  0  0  0  0  0  0  0  0
   10.0040   47.3140   54.1520 C   0  0  0  0  0  0  0  0  0  0  0  0
   10.2270   46.5330   52.8590 C   0  0  0  0  0  0  0  0  0  0  0  0
    9.1240   46.9770   51.8990 C   0  0  0  0  0  0  0  0  0  0  0  0
    8.2920   48.0050   52.6630 C   0  0  0  0  0  0  0  0  0  0  0  0
    5.7440   45.8510   53.2840 C   0  0  0  0  0  0  0  0  0  0  0  0
    6.1400   44.7990   52.5130 N   0  0  0  0  0  0  0  0  0  0  0  0
    6.0840   43.1720   49.8890 C   0  0  0  0  0  0  0  0  0  0  0  0
    6.1530   42.1210   48.9700 C   0  0  0  0  0  0  0  0  0  0  0  0
    5.2611   40.2683   48.2926 H   0  0  0  0  0  0  0  0  0  0  0  0
    3.4511   40.3230   50.0043 H   0  0  0  0  0  0  0  0  0  0  0  0
    3.3291   42.1932   51.6438 H   0  0  0  0  0  0  0  0  0  0  0  0
    3.7509   48.5144   54.9429 H   0  0  0  0  0  0  0  0  0  0  0  0
    8.2596   48.4580   54.8558 H   0  0  0  0  0  0  0  0  0  0  0  0
   10.6196   48.2255   54.1665 H   0  0  0  0  0  0  0  0  0  0  0  0
   10.2863   46.7350   55.0437 H   0  0  0  0  0  0  0  0  0  0  0  0
   11.2161   46.7664   52.4380 H   0  0  0  0  0  0  0  0  0  0  0  0
   10.1935   45.4476   53.0347 H   0  0  0  0  0  0  0  0  0  0  0  0
    9.5613   47.4322   50.9981 H   0  0  0  0  0  0  0  0  0  0  0  0
    8.5101   46.1262   51.5684 H   0  0  0  0  0  0  0  0  0  0  0  0
    8.6375   49.0256   52.4418 H   0  0  0  0  0  0  0  0  0  0  0  0
    7.2283   47.9695   52.3852 H   0  0  0  0  0  0  0  0  0  0  0  0
    7.0780   44.4300   52.4700 H   0  0  0  0  0  0  0  0  0  0  0  0
    6.8329   43.9766   49.8475 H   0  0  0  0  0  0  0  0  0  0  0  0
    6.9518   42.1020   48.2139 H   0  0  0  0  0  0  0  0  0  0  0  0
  1  2  2  0
  2  3  1  0
  3  4  2  0
  4  5  1  0
  5  6  2  0
  6  7  1  0
  7  8  2  0
  8  9  1  0
  9 10  2  0
 10 11  1  0
 11 12  1  0
 12 13  1  0
 13 14  1  0
 14 15  1  0
 15 16  1  0
 16 17  1  0
 11 18  2  0
 18 19  1  0
  4 20  1  0
 20 21  2  0
 21  1  1  0
 19  5  1  0
 18  7  1  0
 17 13  1  0
  1 22  1  0
  2 23  1  0
  3 24  1  0
  9 25  1  0
 13 26  1  0
 14 27  1  0
 14 28  1  0
 15 29  1  0
 15 30  1  0
 16 31  1  0
 16 32  1  0
 17 33  1  0
 17 34  1  0
 19 35  1  0
 20 36  1  0
 21 37  1  0
M  END
>  <meeko>  (4) 
{"is_sidechain": false}

>  <CID>  (4) 
49863194

>  <pose_index>  (4) 
1

>  <docking_score>  (4) 
-9.572

>  <num_viable_poses>  (4) 
10

>  <rmsd_pairwise_std>  (4) 
0.33183138116761435

>  <rmsd_to_best_std>  (4) 
0.3664722993222916

>  <MWT>  (4) 
280.3309999999997

>  <TPSA>  (4) 
63.690000000000005

>  <logP>  (4) 
3.3413000000000013

>  <HBD>  (4) 
1

>  <HBA>  (4) 
4

>  <SMILES>  (4) 
[H]c1nc(OC2([H])C([H])([H])C([H])([H])C([H])([H])C2([H])[H])c2c(n1)nc(-c1c([H])c([H])c([H])c([H])c1[H])n2[H]

$$$$
49863196_pose1
     RDKit          3D

 42 45  0  0  0  0  0  0  0  0999 V2000
    6.5100   42.6120   48.8670 C   0  0  0  0  0  0  0  0  0  0  0  0
    5.7810   41.4560   48.6510 C   0  0  0  0  0  0  0  0  0  0  0  0
    4.7540   41.0640   49.4330 N   0  0  0  0  0  0  0  0  0  0  0  0
    4.4450   41.8690   50.4800 C   0  0  0  0  0  0  0  0  0  0  0  0
    5.1090   43.0530   50.7940 C   0  0  0  0  0  0  0  0  0  0  0  0
    4.7530   43.9040   51.9310 C   0  0  0  0  0  0  0  0  0  0  0  0
    3.7400   43.6940   52.7610 N   0  0  0  0  0  0  0  0  0  0  0  0
    3.7700   44.7180   53.6660 C   0  0  0  0  0  0  0  0  0  0  0  0
    2.9140   44.8920   54.6890 N   0  0  0  0  0  0  0  0  0  0  0  0
    3.1900   45.9880   55.4110 C   0  0  0  0  0  0  0  0  0  0  0  0
    4.1840   46.8820   55.2250 N   0  0  0  0  0  0  0  0  0  0  0  0
    5.0220   46.6770   54.1910 C   0  0  0  0  0  0  0  0  0  0  0  0
    6.0650   47.5340   53.9220 O   0  0  0  0  0  0  0  0  0  0  0  0
    7.2810   47.1630   54.5740 C   0  0  0  0  0  0  0  0  0  0  0  0
    8.4780   47.4880   53.6620 C   0  0  0  0  0  0  0  0  0  0  0  0
    9.5360   46.3690   53.7220 C   0  0  0  0  0  0  0  0  0  0  0  0
   10.4870   46.4420   52.5340 C   0  0  0  0  0  0  0  0  0  0  0  0
    9.7550   46.2390   51.2070 C   0  0  0  0  0  0  0  0  0  0  0  0
    8.2810   46.6420   51.2560 C   0  0  0  0  0  0  0  0  0  0  0  0
    8.0370   47.8010   52.2160 C   0  0  0  0  0  0  0  0  0  0  0  0
    4.8120   45.5760   53.3980 C   0  0  0  0  0  0  0  0  0  0  0  0
    5.4270   45.0520   52.2990 N   0  0  0  0  0  0  0  0  0  0  0  0
    6.1660   43.4160   49.9520 C   0  0  0  0  0  0  0  0  0  0  0  0
    7.3394   42.8891   48.1997 H   0  0  0  0  0  0  0  0  0  0  0  0
    6.0538   40.8218   47.7946 H   0  0  0  0  0  0  0  0  0  0  0  0
    3.6098   41.5651   51.1281 H   0  0  0  0  0  0  0  0  0  0  0  0
    2.5217   46.1831   56.2626 H   0  0  0  0  0  0  0  0  0  0  0  0
    7.3764   47.7227   55.5161 H   0  0  0  0  0  0  0  0  0  0  0  0
    7.2665   46.0837   54.7858 H   0  0  0  0  0  0  0  0  0  0  0  0
    8.9488   48.4060   54.0436 H   0  0  0  0  0  0  0  0  0  0  0  0
   10.1151   46.4729   54.6514 H   0  0  0  0  0  0  0  0  0  0  0  0
    9.0177   45.3992   53.6927 H   0  0  0  0  0  0  0  0  0  0  0  0
   10.9714   47.4296   52.5259 H   0  0  0  0  0  0  0  0  0  0  0  0
   11.2300   45.6379   52.6410 H   0  0  0  0  0  0  0  0  0  0  0  0
   10.2560   46.8439   50.4369 H   0  0  0  0  0  0  0  0  0  0  0  0
    9.7890   45.1632   50.9799 H   0  0  0  0  0  0  0  0  0  0  0  0
    7.9615   46.9431   50.2474 H   0  0  0  0  0  0  0  0  0  0  0  0
    7.7041   45.7768   51.6146 H   0  0  0  0  0  0  0  0  0  0  0  0
    8.5997   48.6763   51.8594 H   0  0  0  0  0  0  0  0  0  0  0  0
    6.9536   47.9903   52.2355 H   0  0  0  0  0  0  0  0  0  0  0  0
    6.2370   45.4500   51.8450 H   0  0  0  0  0  0  0  0  0  0  0  0
    6.7284   44.3409   50.1476 H   0  0  0  0  0  0  0  0  0  0  0  0
  1  2  2  0
  2  3  1  0
  3  4  2  0
  4  5  1  0
  5  6  1  0
  6  7  2  0
  7  8  1  0
  8  9  2  0
  9 10  1  0
 10 11  2  0
 11 12  1  0
 12 13  1  0
 13 14  1  0
 14 15  1  0
 15 16  1  0
 16 17  1  0
 17 18  1  0
 18 19  1  0
 19 20  1  0
 12 21  2  0
 21 22  1  0
  5 23  2  0
 23  1  1  0
 22  6  1  0
 21  8  1  0
 20 15  1  0
  1 24  1  0
  2 25  1  0
  4 26  1  0
 10 27  1  0
 14 28  1  0
 14 29  1  0
 15 30  1  0
 16 31  1  0
 16 32  1  0
 17 33  1  0
 17 34  1  0
 18 35  1  0
 18 36  1  0
 19 37  1  0
 19 38  1  0
 20 39  1  0
 20 40  1  0
 22 41  1  0
 23 42  1  0
M  END
>  <meeko>  (5) 
{"is_sidechain": false}

>  <CID>  (5) 
49863196

>  <pose_index>  (5) 
1

>  <docking_score>  (5) 
-9.156

>  <num_viable_poses>  (5) 
6

>  <rmsd_pairwise_std>  (5) 
0.34081058242851336

>  <rmsd_to_best_std>  (5) 
0.29275426207156463

>  <MWT>  (5) 
309.37299999999965

>  <TPSA>  (5) 
76.58000000000001

>  <logP>  (5) 
3.3740000000000014

>  <HBD>  (5) 
1

>  <HBA>  (5) 
5

>  <SMILES>  (5) 
[H]c1nc(OC([H])([H])C2([H])C([H])([H])C([H])([H])C([H])([H])C([H])([H])C2([H])[H])c2c(n1)nc(-c1c([H])nc([H])c([H])c1[H])n2[H]

$$$$
5329520_pose1
     RDKit          3D

 32 34  0  0  0  0  0  0  0  0999 V2000
    2.1660   42.3050   53.0740 N   0  0  0  0  0  0  0  0  0  0  0  0
    3.2240   42.8000   52.3320 C   0  0  0  0  0  0  0  0  0  0  0  0
    3.4710   44.1160   52.4490 N   0  0  0  0  0  0  0  0  0  0  0  0
    4.4850   44.6330   51.7360 C   0  0  0  0  0  0  0  0  0  0  0  0
    4.7640   45.9720   51.8420 O   0  0  0  0  0  0  0  0  0  0  0  0
    5.2720   46.2520   53.1530 C   0  0  0  0  0  0  0  0  0  0  0  0
    6.1600   47.4980   53.0710 C   0  0  0  0  0  0  0  0  0  0  0  0
    7.6250   47.1610   52.8930 C   0  0  0  0  0  0  0  0  0  0  0  0
    8.5340   47.3660   53.9430 C   0  0  0  0  0  0  0  0  0  0  0  0
    9.8810   47.0350   53.7900 C   0  0  0  0  0  0  0  0  0  0  0  0
   10.3350   46.4920   52.5890 C   0  0  0  0  0  0  0  0  0  0  0  0
    9.4420   46.2870   51.5370 C   0  0  0  0  0  0  0  0  0  0  0  0
    8.0970   46.6250   51.6860 C   0  0  0  0  0  0  0  0  0  0  0  0
    5.2270   43.8010   50.9430 C   0  0  0  0  0  0  0  0  0  0  0  0
    6.2720   43.9590   50.0820 N   0  0  0  0  0  0  0  0  0  0  0  0
    6.5610   42.7230   49.5690 C   0  0  0  0  0  0  0  0  0  0  0  0
    5.7600   41.7950   50.0490 N   0  0  0  0  0  0  0  0  0  0  0  0
    4.9140   42.4610   50.8960 C   0  0  0  0  0  0  0  0  0  0  0  0
    3.9050   41.9170   51.5970 N   0  0  0  0  0  0  0  0  0  0  0  0
    1.5910   41.7150   52.4880 H   0  0  0  0  0  0  0  0  0  0  0  0
    2.5110   41.9070   53.9360 H   0  0  0  0  0  0  0  0  0  0  0  0
    4.4361   46.4362   53.8439 H   0  0  0  0  0  0  0  0  0  0  0  0
    5.8549   45.3959   53.5235 H   0  0  0  0  0  0  0  0  0  0  0  0
    5.8328   48.1076   52.2158 H   0  0  0  0  0  0  0  0  0  0  0  0
    6.0575   48.0420   54.0215 H   0  0  0  0  0  0  0  0  0  0  0  0
    8.1815   47.7911   54.8943 H   0  0  0  0  0  0  0  0  0  0  0  0
   10.5854   47.2028   54.6181 H   0  0  0  0  0  0  0  0  0  0  0  0
   11.3957   46.2256   52.4710 H   0  0  0  0  0  0  0  0  0  0  0  0
    9.7990   45.8583   50.5889 H   0  0  0  0  0  0  0  0  0  0  0  0
    7.4001   46.4697   50.8492 H   0  0  0  0  0  0  0  0  0  0  0  0
    6.7200   44.8330   49.8420 H   0  0  0  0  0  0  0  0  0  0  0  0
    7.3649   42.5289   48.8437 H   0  0  0  0  0  0  0  0  0  0  0  0
  1  2  1  0
  2  3  2  0
  3  4  1  0
  4  5  1  0
  5  6  1  0
  6  7  1  0
  7  8  1  0
  8  9  2  0
  9 10  1  0
 10 11  2  0
 11 12  1  0
 12 13  2  0
  4 14  2  0
 14 15  1  0
 15 16  1  0
 16 17  2  0
 17 18  1  0
 18 19  2  0
 19  2  1  0
 13  8  1  0
 18 14  1  0
  1 20  1  0
  1 21  1  0
  6 22  1  0
  6 23  1  0
  7 24  1  0
  7 25  1  0
  9 26  1  0
 10 27  1  0
 11 28  1  0
 12 29  1  0
 13 30  1  0
 15 31  1  0
 16 32  1  0
M  END
>  <meeko>  (6) 
{"is_sidechain": false}

>  <CID>  (6) 
5329520

>  <pose_index>  (6) 
1

>  <docking_score>  (6) 
-8.075

>  <num_viable_poses>  (6) 
5

>  <rmsd_pairwise_std>  (6) 
0.40522305674226455

>  <rmsd_to_best_std>  (6) 
0.5625770332129245

>  <MWT>  (6) 
255.2810000000001

>  <TPSA>  (6) 
89.71

>  <logP>  (6) 
1.5566

>  <HBD>  (6) 
2

>  <HBA>  (6) 
5

>  <SMILES>  (6) 
[H]c1c([H])c([H])c(C([H])([H])C([H])([H])Oc2nc(N([H])[H])nc3nc([H])n([H])c23)c([H])c1[H]

$$$$
5329552_pose1
     RDKit          3D

 45 48  0  0  0  0  0  0  0  0999 V2000
    8.3330   43.9150   49.1460 Br  0  0  0  0  0  0  0  0  0  0  0  0
    6.7360   43.1030   49.7480 C   0  0  0  0  0  0  0  0  0  0  0  0
    6.5300   41.7450   49.5300 C   0  0  0  0  0  0  0  0  0  0  0  0
    5.3510   41.1570   49.9790 C   0  0  0  0  0  0  0  0  0  0  0  0
    4.3880   41.9270   50.6410 C   0  0  0  0  0  0  0  0  0  0  0  0
    4.5750   43.2960   50.8630 C   0  0  0  0  0  0  0  0  0  0  0  0
    3.6530   44.1130   51.5260 N   0  0  0  0  0  0  0  0  0  0  0  0
    3.5830   44.6850   52.7970 C   0  0  0  0  0  0  0  0  0  0  0  0
    4.6300   45.3630   53.3160 N   0  0  0  0  0  0  0  0  0  0  0  0
    4.5270   45.9040   54.5440 C   0  0  0  0  0  0  0  0  0  0  0  0
    5.5650   46.5970   55.1250 O   0  0  0  0  0  0  0  0  0  0  0  0
    6.8570   46.3240   54.5710 C   0  0  0  0  0  0  0  0  0  0  0  0
    7.4780   47.5810   53.9280 C   0  0  0  0  0  0  0  0  0  0  0  0
    8.9170   47.8050   54.4170 C   0  0  0  0  0  0  0  0  0  0  0  0
    9.9140   46.8140   53.8160 C   0  0  0  0  0  0  0  0  0  0  0  0
    9.8440   46.7980   52.2930 C   0  0  0  0  0  0  0  0  0  0  0  0
    8.4260   46.5500   51.7890 C   0  0  0  0  0  0  0  0  0  0  0  0
    7.4320   47.5420   52.3900 C   0  0  0  0  0  0  0  0  0  0  0  0
    3.3510   45.7350   55.2220 C   0  0  0  0  0  0  0  0  0  0  0  0
    2.8750   46.1110   56.4440 N   0  0  0  0  0  0  0  0  0  0  0  0
    1.5970   45.6320   56.5470 C   0  0  0  0  0  0  0  0  0  0  0  0
    1.2350   44.9760   55.4640 N   0  0  0  0  0  0  0  0  0  0  0  0
    2.3240   45.0340   54.6330 C   0  0  0  0  0  0  0  0  0  0  0  0
    2.4070   44.4940   53.4090 N   0  0  0  0  0  0  0  0  0  0  0  0
    5.7730   43.8710   50.4080 C   0  0  0  0  0  0  0  0  0  0  0  0
    7.2893   41.1431   49.0092 H   0  0  0  0  0  0  0  0  0  0  0  0
    5.1757   40.0838   49.8130 H   0  0  0  0  0  0  0  0  0  0  0  0
    3.4642   41.4458   50.9945 H   0  0  0  0  0  0  0  0  0  0  0  0
    2.7990   44.3360   51.0320 H   0  0  0  0  0  0  0  0  0  0  0  0
    7.5210   45.9684   55.3727 H   0  0  0  0  0  0  0  0  0  0  0  0
    6.7405   45.5599   53.7884 H   0  0  0  0  0  0  0  0  0  0  0  0
    6.8603   48.4318   54.2515 H   0  0  0  0  0  0  0  0  0  0  0  0
    9.2262   48.8240   54.1411 H   0  0  0  0  0  0  0  0  0  0  0  0
    8.9209   47.6552   55.5067 H   0  0  0  0  0  0  0  0  0  0  0  0
   10.9307   47.1004   54.1232 H   0  0  0  0  0  0  0  0  0  0  0  0
    9.6606   45.8080   54.1817 H   0  0  0  0  0  0  0  0  0  0  0  0
   10.1919   47.7692   51.9112 H   0  0  0  0  0  0  0  0  0  0  0  0
   10.4814   45.9773   51.9321 H   0  0  0  0  0  0  0  0  0  0  0  0
    8.4138   46.6522   50.6938 H   0  0  0  0  0  0  0  0  0  0  0  0
    8.1259   45.5364   52.0934 H   0  0  0  0  0  0  0  0  0  0  0  0
    7.6639   48.5466   52.0066 H   0  0  0  0  0  0  0  0  0  0  0  0
    6.4230   47.2146   52.0988 H   0  0  0  0  0  0  0  0  0  0  0  0
    3.3790   46.6440   57.1400 H   0  0  0  0  0  0  0  0  0  0  0  0
    0.9518   45.7771   57.4260 H   0  0  0  0  0  0  0  0  0  0  0  0
    5.9561   44.9429   50.5738 H   0  0  0  0  0  0  0  0  0  0  0  0
  1  2  1  0
  2  3  2  0
  3  4  1  0
  4  5  2  0
  5  6  1  0
  6  7  1  0
  7  8  1  0
  8  9  2  0
  9 10  1  0
 10 11  1  0
 11 12  1  0
 12 13  1  0
 13 14  1  0
 14 15  1  0
 15 16  1  0
 16 17  1  0
 17 18  1  0
 10 19  2  0
 19 20  1  0
 20 21  1  0
 21 22  2  0
 22 23  1  0
 23 24  2  0
  6 25  2  0
 25  2  1  0
 24  8  1  0
 18 13  1  0
 23 19  1  0
  3 26  1  0
  4 27  1  0
  5 28  1  0
  7 29  1  0
 12 30  1  0
 12 31  1  0
 13 32  1  0
 14 33  1  0
 14 34  1  0
 15 35  1  0
 15 36  1  0
 16 37  1  0
 16 38  1  0
 17 39  1  0
 17 40  1  0
 18 41  1  0
 18 42  1  0
 20 43  1  0
 21 44  1  0
 25 45  1  0
M  END
>  <meeko>  (7) 
{"is_sidechain": false}

>  <CID>  (7) 
5329552

>  <pose_index>  (7) 
1

>  <docking_score>  (7) 
-9.68

>  <num_viable_poses>  (7) 
5

>  <rmsd_pairwise_std>  (7) 
0.28225173934341513

>  <rmsd_to_best_std>  (7) 
0.22577435605153964

>  <MWT>  (7) 
402.29599999999976

>  <TPSA>  (7) 
75.72

>  <logP>  (7) 
4.818100000000003

>  <HBD>  (7) 
2

>  <HBA>  (7) 
5

>  <SMILES>  (7) 
[H]c1c([H])c(Br)c([H])c(N([H])c2nc(OC([H])([H])C3([H])C([H])([H])C([H])([H])C([H])([H])C([H])([H])C3([H])[H])c3c(n2)nc([H])n3[H])c1[H]

$$$$
5329558_pose1
     RDKit          3D

 45 48  0  0  0  0  0  0  0  0999 V2000
    7.9800   43.0930   48.4860 F   0  0  0  0  0  0  0  0  0  0  0  0
    6.9240   43.1180   49.3110 C   0  0  0  0  0  0  0  0  0  0  0  0
    6.5020   44.3250   49.8480 C   0  0  0  0  0  0  0  0  0  0  0  0
    5.4010   44.3470   50.7070 C   0  0  0  0  0  0  0  0  0  0  0  0
    4.7070   43.1680   51.0390 C   0  0  0  0  0  0  0  0  0  0  0  0
    3.6150   43.2620   51.9080 N   0  0  0  0  0  0  0  0  0  0  0  0
    3.3660   43.9700   53.0840 C   0  0  0  0  0  0  0  0  0  0  0  0
    4.4720   44.5450   53.6110 N   0  0  0  0  0  0  0  0  0  0  0  0
    4.3720   45.2580   54.7490 C   0  0  0  0  0  0  0  0  0  0  0  0
    5.4570   45.8890   55.3120 O   0  0  0  0  0  0  0  0  0  0  0  0
    5.9970   46.9780   54.5600 C   0  0  0  0  0  0  0  0  0  0  0  0
    7.3270   46.5740   53.9000 C   0  0  0  0  0  0  0  0  0  0  0  0
    7.2920   46.8990   52.3990 C   0  0  0  0  0  0  0  0  0  0  0  0
    8.6060   46.5410   51.7070 C   0  0  0  0  0  0  0  0  0  0  0  0
    9.7960   47.2140   52.3820 C   0  0  0  0  0  0  0  0  0  0  0  0
    9.8460   46.8920   53.8720 C   0  0  0  0  0  0  0  0  0  0  0  0
    8.5360   47.2460   54.5720 C   0  0  0  0  0  0  0  0  0  0  0  0
    3.1330   45.3810   55.3190 C   0  0  0  0  0  0  0  0  0  0  0  0
    2.6330   46.0100   56.4200 N   0  0  0  0  0  0  0  0  0  0  0  0
    1.2880   45.7540   56.4580 C   0  0  0  0  0  0  0  0  0  0  0  0
    0.9070   45.0040   55.4460 N   0  0  0  0  0  0  0  0  0  0  0  0
    2.0510   44.7680   54.7290 C   0  0  0  0  0  0  0  0  0  0  0  0
    2.1370   44.0470   53.6030 N   0  0  0  0  0  0  0  0  0  0  0  0
    5.1610   41.9660   50.4800 C   0  0  0  0  0  0  0  0  0  0  0  0
    6.2630   41.9390   49.6190 C   0  0  0  0  0  0  0  0  0  0  0  0
    7.0301   45.2574   49.5994 H   0  0  0  0  0  0  0  0  0  0  0  0
    5.0692   45.3054   51.1330 H   0  0  0  0  0  0  0  0  0  0  0  0
    2.8050   42.7010   51.6890 H   0  0  0  0  0  0  0  0  0  0  0  0
    5.2794   47.2687   53.7786 H   0  0  0  0  0  0  0  0  0  0  0  0
    6.1811   47.8221   55.2408 H   0  0  0  0  0  0  0  0  0  0  0  0
    7.4472   45.4886   54.0325 H   0  0  0  0  0  0  0  0  0  0  0  0
    6.4766   46.3283   51.9306 H   0  0  0  0  0  0  0  0  0  0  0  0
    7.1330   47.9818   52.2886 H   0  0  0  0  0  0  0  0  0  0  0  0
    8.7439   45.4503   51.7446 H   0  0  0  0  0  0  0  0  0  0  0  0
    8.5549   46.8943   50.6665 H   0  0  0  0  0  0  0  0  0  0  0  0
   10.7235   46.8602   51.9081 H   0  0  0  0  0  0  0  0  0  0  0  0
    9.6893   48.3027   52.2665 H   0  0  0  0  0  0  0  0  0  0  0  0
   10.0376   45.8161   53.9977 H   0  0  0  0  0  0  0  0  0  0  0  0
   10.6491   47.4918   54.3251 H   0  0  0  0  0  0  0  0  0  0  0  0
    8.5912   46.9135   55.6191 H   0  0  0  0  0  0  0  0  0  0  0  0
    8.3992   48.3356   54.5086 H   0  0  0  0  0  0  0  0  0  0  0  0
    3.1610   46.5610   57.0830 H   0  0  0  0  0  0  0  0  0  0  0  0
    0.6097   46.1292   57.2385 H   0  0  0  0  0  0  0  0  0  0  0  0
    4.6416   41.0271   50.7225 H   0  0  0  0  0  0  0  0  0  0  0  0
    6.6038   40.9861   49.1880 H   0  0  0  0  0  0  0  0  0  0  0  0
  1  2  1  0
  2  3  2  0
  3  4  1  0
  4  5  2  0
  5  6  1  0
  6  7  1  0
  7  8  2  0
  8  9  1  0
  9 10  1  0
 10 11  1  0
 11 12  1  0
 12 13  1  0
 13 14  1  0
 14 15  1  0
 15 16  1  0
 16 17  1  0
  9 18  2  0
 18 19  1  0
 19 20  1  0
 20 21  2  0
 21 22  1  0
 22 23  2  0
  5 24  1  0
 24 25  2  0
 25  2  1  0
 23  7  1  0
 17 12  1  0
 22 18  1  0
  3 26  1  0
  4 27  1  0
  6 28  1  0
 11 29  1  0
 11 30  1  0
 12 31  1  0
 13 32  1  0
 13 33  1  0
 14 34  1  0
 14 35  1  0
 15 36  1  0
 15 37  1  0
 16 38  1  0
 16 39  1  0
 17 40  1  0
 17 41  1  0
 19 42  1  0
 20 43  1  0
 24 44  1  0
 25 45  1  0
M  END
>  <meeko>  (8) 
{"is_sidechain": false}

>  <CID>  (8) 
5329558

>  <pose_index>  (8) 
1

>  <docking_score>  (8) 
-9.605

>  <num_viable_poses>  (8) 
5

>  <rmsd_pairwise_std>  (8) 
0.2982841226775778

>  <rmsd_to_best_std>  (8) 
0.17207668538071255

>  <MWT>  (8) 
341.3899999999997

>  <TPSA>  (8) 
75.72

>  <logP>  (8) 
4.194700000000002

>  <HBD>  (8) 
2

>  <HBA>  (8) 
5

>  <SMILES>  (8) 
[H]c1c([H])c(N([H])c2nc(OC([H])([H])C3([H])C([H])([H])C([H])([H])C([H])([H])C([H])([H])C3([H])[H])c3c(n2)nc([H])n3[H])c([H])c([H])c1F

$$$$
5329559_pose1
     RDKit          3D

 45 48  0  0  0  0  0  0  0  0999 V2000
   -0.0430   44.0210   54.3220 F   0  0  0  0  0  0  0  0  0  0  0  0
    1.0900   44.7370   54.3840 C   0  0  0  0  0  0  0  0  0  0  0  0
    1.6720   44.9650   55.6230 C   0  0  0  0  0  0  0  0  0  0  0  0
    2.8540   45.7090   55.7090 C   0  0  0  0  0  0  0  0  0  0  0  0
    3.4700   46.2320   54.5650 C   0  0  0  0  0  0  0  0  0  0  0  0
    4.6540   46.9750   54.5890 N   0  0  0  0  0  0  0  0  0  0  0  0
    5.9290   46.8170   54.0410 C   0  0  0  0  0  0  0  0  0  0  0  0
    6.1000   46.3020   52.8050 N   0  0  0  0  0  0  0  0  0  0  0  0
    7.3450   46.1710   52.3080 C   0  0  0  0  0  0  0  0  0  0  0  0
    7.5810   45.6840   51.0430 O   0  0  0  0  0  0  0  0  0  0  0  0
    6.4240   45.2660   50.3160 C   0  0  0  0  0  0  0  0  0  0  0  0
    6.1010   43.7910   50.6040 C   0  0  0  0  0  0  0  0  0  0  0  0
    4.6120   43.6370   50.9520 C   0  0  0  0  0  0  0  0  0  0  0  0
    4.2360   42.1830   51.2230 C   0  0  0  0  0  0  0  0  0  0  0  0
    4.6200   41.2770   50.0570 C   0  0  0  0  0  0  0  0  0  0  0  0
    6.0980   41.4130   49.7120 C   0  0  0  0  0  0  0  0  0  0  0  0
    6.4840   42.8650   49.4380 C   0  0  0  0  0  0  0  0  0  0  0  0
    8.3920   46.5860   53.0860 C   0  0  0  0  0  0  0  0  0  0  0  0
    9.7480   46.6350   52.9400 N   0  0  0  0  0  0  0  0  0  0  0  0
   10.2610   47.1630   54.0930 C   0  0  0  0  0  0  0  0  0  0  0  0
    9.3140   47.4530   54.9590 N   0  0  0  0  0  0  0  0  0  0  0  0
    8.1450   47.0990   54.3390 C   0  0  0  0  0  0  0  0  0  0  0  0
    6.9140   47.2270   54.8520 N   0  0  0  0  0  0  0  0  0  0  0  0
    2.8590   45.9870   53.3230 C   0  0  0  0  0  0  0  0  0  0  0  0
    1.6770   45.2440   53.2320 C   0  0  0  0  0  0  0  0  0  0  0  0
    0.9670   44.9690   51.6880 Cl  0  0  0  0  0  0  0  0  0  0  0  0
    1.2058   44.5623   56.5343 H   0  0  0  0  0  0  0  0  0  0  0  0
    3.3085   45.8867   56.6948 H   0  0  0  0  0  0  0  0  0  0  0  0
    4.6400   47.8520   55.0940 H   0  0  0  0  0  0  0  0  0  0  0  0
    5.5668   45.8876   50.6141 H   0  0  0  0  0  0  0  0  0  0  0  0
    6.6238   45.3794   49.2403 H   0  0  0  0  0  0  0  0  0  0  0  0
    6.7115   43.4831   51.4657 H   0  0  0  0  0  0  0  0  0  0  0  0
    4.3935   44.2337   51.8499 H   0  0  0  0  0  0  0  0  0  0  0  0
    4.0237   43.9853   50.0902 H   0  0  0  0  0  0  0  0  0  0  0  0
    4.7598   41.8415   52.1280 H   0  0  0  0  0  0  0  0  0  0  0  0
    3.1455   42.1287   51.3563 H   0  0  0  0  0  0  0  0  0  0  0  0
    4.4109   40.2324   50.3312 H   0  0  0  0  0  0  0  0  0  0  0  0
    4.0299   41.5748   49.1777 H   0  0  0  0  0  0  0  0  0  0  0  0
    6.6966   41.0383   50.5553 H   0  0  0  0  0  0  0  0  0  0  0  0
    6.2919   40.8292   48.8001 H   0  0  0  0  0  0  0  0  0  0  0  0
    7.5716   42.9204   49.2826 H   0  0  0  0  0  0  0  0  0  0  0  0
    5.9375   43.1996   48.5439 H   0  0  0  0  0  0  0  0  0  0  0  0
   10.2700   46.3350   52.1270 H   0  0  0  0  0  0  0  0  0  0  0  0
   11.3338   47.3252   54.2739 H   0  0  0  0  0  0  0  0  0  0  0  0
    3.3182   46.3864   52.4067 H   0  0  0  0  0  0  0  0  0  0  0  0
  1  2  1  0
  2  3  2  0
  3  4  1  0
  4  5  2  0
  5  6  1  0
  6  7  1  0
  7  8  2  0
  8  9  1  0
  9 10  1  0
 10 11  1  0
 11 12  1  0
 12 13  1  0
 13 14  1  0
 14 15  1  0
 15 16  1  0
 16 17  1  0
  9 18  2  0
 18 19  1  0
 19 20  1  0
 20 21  2  0
 21 22  1  0
 22 23  2  0
  5 24  1  0
 24 25  2  0
 25 26  1  0
 25  2  1  0
 23  7  1  0
 17 12  1  0
 22 18  1  0
  3 27  1  0
  4 28  1  0
  6 29  1  0
 11 30  1  0
 11 31  1  0
 12 32  1  0
 13 33  1  0
 13 34  1  0
 14 35  1  0
 14 36  1  0
 15 37  1  0
 15 38  1  0
 16 39  1  0
 16 40  1  0
 17 41  1  0
 17 42  1  0
 19 43  1  0
 20 44  1  0
 24 45  1  0
M  END
>  <meeko>  (9) 
{"is_sidechain": false}

>  <CID>  (9) 
5329559

>  <pose_index>  (9) 
1

>  <docking_score>  (9) 
-9.454

>  <num_viable_poses>  (9) 
6

>  <rmsd_pairwise_std>  (9) 
0.3122673369966993

>  <rmsd_to_best_std>  (9) 
0.3722203997984315

>  <MWT>  (9) 
375.83499999999975

>  <TPSA>  (9) 
75.72

>  <logP>  (9) 
4.848100000000002

>  <HBD>  (9) 
2

>  <HBA>  (9) 
5

>  <SMILES>  (9) 
[H]c1c([H])c(N([H])c2nc(OC([H])([H])C3([H])C([H])([H])C([H])([H])C([H])([H])C([H])([H])C3([H])[H])c3c(n2)nc([H])n3[H])c([H])c(Cl)c1F

$$$$
5329560_pose1
     RDKit          3D

 49 52  0  0  0  0  0  0  0  0999 V2000
   11.0800   47.4920   56.2410 C   0  0  0  0  0  0  0  0  0  0  0  0
    9.9020   48.0460   55.6680 O   0  0  0  0  0  0  0  0  0  0  0  0
    9.4700   47.4930   54.4960 C   0  0  0  0  0  0  0  0  0  0  0  0
   10.2710   46.9180   53.5130 C   0  0  0  0  0  0  0  0  0  0  0  0
    9.6940   46.3840   52.3510 C   0  0  0  0  0  0  0  0  0  0  0  0
    8.3120   46.4100   52.1420 C   0  0  0  0  0  0  0  0  0  0  0  0
    7.6800   45.8960   51.0050 N   0  0  0  0  0  0  0  0  0  0  0  0
    6.8680   44.7890   50.7600 C   0  0  0  0  0  0  0  0  0  0  0  0
    5.8690   44.6430   51.6600 N   0  0  0  0  0  0  0  0  0  0  0  0
    5.0100   43.6140   51.5410 C   0  0  0  0  0  0  0  0  0  0  0  0
    3.9900   43.4040   52.4380 O   0  0  0  0  0  0  0  0  0  0  0  0
    2.7920   44.1510   52.2110 C   0  0  0  0  0  0  0  0  0  0  0  0
    2.5820   45.1680   53.3460 C   0  0  0  0  0  0  0  0  0  0  0  0
    3.6400   44.9990   54.4540 C   0  0  0  0  0  0  0  0  0  0  0  0
    3.7910   46.2680   55.2830 C   0  0  0  0  0  0  0  0  0  0  0  0
    4.2710   47.4440   54.4300 C   0  0  0  0  0  0  0  0  0  0  0  0
    3.8530   47.3410   52.9630 C   0  0  0  0  0  0  0  0  0  0  0  0
    2.5260   46.6090   52.8030 C   0  0  0  0  0  0  0  0  0  0  0  0
    5.1980   42.7450   50.4990 C   0  0  0  0  0  0  0  0  0  0  0  0
    4.5730   41.6170   50.0570 N   0  0  0  0  0  0  0  0  0  0  0  0
    5.2420   41.1930   48.9410 C   0  0  0  0  0  0  0  0  0  0  0  0
    6.2540   41.9840   48.6500 N   0  0  0  0  0  0  0  0  0  0  0  0
    6.2340   42.9550   49.6180 C   0  0  0  0  0  0  0  0  0  0  0  0
    7.0930   43.9770   49.7210 N   0  0  0  0  0  0  0  0  0  0  0  0
    7.5200   46.9950   53.1420 C   0  0  0  0  0  0  0  0  0  0  0  0
    8.0920   47.5290   54.3030 C   0  0  0  0  0  0  0  0  0  0  0  0
   11.0056   47.5270   57.3379 H   0  0  0  0  0  0  0  0  0  0  0  0
   11.1905   46.4475   55.9141 H   0  0  0  0  0  0  0  0  0  0  0  0
   11.9550   48.0730   55.9141 H   0  0  0  0  0  0  0  0  0  0  0  0
   11.3621   46.8822   53.6482 H   0  0  0  0  0  0  0  0  0  0  0  0
   10.3444   45.9342   51.5863 H   0  0  0  0  0  0  0  0  0  0  0  0
    7.7980   46.4120   50.1460 H   0  0  0  0  0  0  0  0  0  0  0  0
    2.8724   44.6858   51.2531 H   0  0  0  0  0  0  0  0  0  0  0  0
    1.9363   43.4604   52.1825 H   0  0  0  0  0  0  0  0  0  0  0  0
    1.6046   44.9637   53.8074 H   0  0  0  0  0  0  0  0  0  0  0  0
    3.3357   44.1745   55.1155 H   0  0  0  0  0  0  0  0  0  0  0  0
    4.6070   44.7828   53.9764 H   0  0  0  0  0  0  0  0  0  0  0  0
    2.8171   46.5227   55.7265 H   0  0  0  0  0  0  0  0  0  0  0  0
    4.5418   46.0810   56.0649 H   0  0  0  0  0  0  0  0  0  0  0  0
    3.8521   48.3714   54.8476 H   0  0  0  0  0  0  0  0  0  0  0  0
    5.3707   47.4359   54.4555 H   0  0  0  0  0  0  0  0  0  0  0  0
    3.7523   48.3553   52.5493 H   0  0  0  0  0  0  0  0  0  0  0  0
    4.6253   46.7702   52.4266 H   0  0  0  0  0  0  0  0  0  0  0  0
    1.7487   47.1628   53.3499 H   0  0  0  0  0  0  0  0  0  0  0  0
    2.3002   46.5542   51.7278 H   0  0  0  0  0  0  0  0  0  0  0  0
    3.7660   41.1780   50.4790 H   0  0  0  0  0  0  0  0  0  0  0  0
    4.9681   40.3010   48.3585 H   0  0  0  0  0  0  0  0  0  0  0  0
    6.4285   47.0348   53.0111 H   0  0  0  0  0  0  0  0  0  0  0  0
    7.4462   47.9813   55.0700 H   0  0  0  0  0  0  0  0  0  0  0  0
  1  2  1  0
  2  3  1  0
  3  4  2  0
  4  5  1  0
  5  6  2  0
  6  7  1  0
  7  8  1  0
  8  9  2  0
  9 10  1  0
 10 11  1  0
 11 12  1  0
 12 13  1  0
 13 14  1  0
 14 15  1  0
 15 16  1  0
 16 17  1  0
 17 18  1  0
 10 19  2  0
 19 20  1  0
 20 21  1  0
 21 22  2  0
 22 23  1  0
 23 24  2  0
  6 25  1  0
 25 26  2  0
 26  3  1  0
 24  8  1  0
 18 13  1  0
 23 19  1  0
  1 27  1  0
  1 28  1  0
  1 29  1  0
  4 30  1  0
  5 31  1  0
  7 32  1  0
 12 33  1  0
 12 34  1  0
 13 35  1  0
 14 36  1  0
 14 37  1  0
 15 38  1  0
 15 39  1  0
 16 40  1  0
 16 41  1  0
 17 42  1  0
 17 43  1  0
 18 44  1  0
 18 45  1  0
 20 46  1  0
 21 47  1  0
 25 48  1  0
 26 49  1  0
M  END
>  <meeko>  (10) 
{"is_sidechain": false}

>  <CID>  (10) 
5329560

>  <pose_index>  (10) 
1

>  <docking_score>  (10) 
-9.08

>  <num_viable_poses>  (10) 
6

>  <rmsd_pairwise_std>  (10) 
0.29399473094658074

>  <rmsd_to_best_std>  (10) 
0.14818710237050395

>  <MWT>  (10) 
353.42599999999965

>  <TPSA>  (10) 
84.95

>  <logP>  (10) 
4.064200000000002

>  <HBD>  (10) 
2

>  <HBA>  (10) 
6

>  <SMILES>  (10) 
[H]c1c([H])c(N([H])c2nc(OC([H])([H])C3([H])C([H])([H])C([H])([H])C([H])([H])C([H])([H])C3([H])[H])c3c(n2)nc([H])n3[H])c([H])c([H])c1OC([H])([H])[H]

$$$$
5329565_pose1
     RDKit          3D

 50 53  0  0  0  0  0  0  0  0999 V2000
   -0.1240   43.1850   51.5230 C   0  0  0  0  0  0  0  0  0  0  0  0
   -0.6120   43.7870   53.1580 S   0  0  0  0  0  0  0  0  0  0  0  0
   -0.5580   42.6210   54.1000 O   0  0  0  0  0  0  0  0  0  0  0  0
    0.8800   44.7560   53.4830 C   0  0  0  0  0  0  0  0  0  0  0  0
    1.6540   44.5270   54.6210 C   0  0  0  0  0  0  0  0  0  0  0  0
    2.8090   45.2840   54.8540 C   0  0  0  0  0  0  0  0  0  0  0  0
    3.2090   46.2930   53.9740 C   0  0  0  0  0  0  0  0  0  0  0  0
    4.3720   47.0530   54.1360 N   0  0  0  0  0  0  0  0  0  0  0  0
    5.7020   46.8820   53.7500 C   0  0  0  0  0  0  0  0  0  0  0  0
    6.0100   46.3640   52.5400 N   0  0  0  0  0  0  0  0  0  0  0  0
    7.3020   46.2430   52.1810 C   0  0  0  0  0  0  0  0  0  0  0  0
    7.6740   45.7330   50.9580 O   0  0  0  0  0  0  0  0  0  0  0  0
    6.5940   45.2310   50.1630 C   0  0  0  0  0  0  0  0  0  0  0  0
    6.2490   43.7770   50.5310 C   0  0  0  0  0  0  0  0  0  0  0  0
    4.7750   43.6660   50.9440 C   0  0  0  0  0  0  0  0  0  0  0  0
    4.3910   42.2280   51.2820 C   0  0  0  0  0  0  0  0  0  0  0  0
    4.7140   41.2750   50.1370 C   0  0  0  0  0  0  0  0  0  0  0  0
    6.1730   41.3810   49.7090 C   0  0  0  0  0  0  0  0  0  0  0  0
    6.5620   42.8190   49.3730 C   0  0  0  0  0  0  0  0  0  0  0  0
    8.2560   46.6470   53.0750 C   0  0  0  0  0  0  0  0  0  0  0  0
    9.6200   46.6770   53.0880 N   0  0  0  0  0  0  0  0  0  0  0  0
   10.0030   47.2090   54.2900 C   0  0  0  0  0  0  0  0  0  0  0  0
    8.9650   47.5180   55.0380 N   0  0  0  0  0  0  0  0  0  0  0  0
    7.8710   47.1680   54.2890 C   0  0  0  0  0  0  0  0  0  0  0  0
    6.5890   47.3070   54.6590 N   0  0  0  0  0  0  0  0  0  0  0  0
    2.4230   46.5060   52.8290 C   0  0  0  0  0  0  0  0  0  0  0  0
    1.2690   45.7530   52.5860 C   0  0  0  0  0  0  0  0  0  0  0  0
    0.5650   42.3350   51.6359 H   0  0  0  0  0  0  0  0  0  0  0  0
   -1.0179   42.8614   50.9696 H   0  0  0  0  0  0  0  0  0  0  0  0
    0.3775   43.9926   50.9696 H   0  0  0  0  0  0  0  0  0  0  0  0
    1.3557   43.7484   55.3385 H   0  0  0  0  0  0  0  0  0  0  0  0
    3.4145   45.0798   55.7493 H   0  0  0  0  0  0  0  0  0  0  0  0
    4.3160   47.8450   54.7600 H   0  0  0  0  0  0  0  0  0  0  0  0
    5.7072   45.8609   50.3267 H   0  0  0  0  0  0  0  0  0  0  0  0
    6.9030   45.2551   49.1076 H   0  0  0  0  0  0  0  0  0  0  0  0
    6.8769   43.4840   51.3854 H   0  0  0  0  0  0  0  0  0  0  0  0
    4.6037   44.2980   51.8279 H   0  0  0  0  0  0  0  0  0  0  0  0
    4.1555   43.9967   50.0974 H   0  0  0  0  0  0  0  0  0  0  0  0
    4.9467   41.9115   52.1770 H   0  0  0  0  0  0  0  0  0  0  0  0
    3.3060   42.1953   51.4601 H   0  0  0  0  0  0  0  0  0  0  0  0
    4.5125   40.2442   50.4637 H   0  0  0  0  0  0  0  0  0  0  0  0
    4.0841   41.5466   49.2771 H   0  0  0  0  0  0  0  0  0  0  0  0
    6.8118   41.0217   50.5293 H   0  0  0  0  0  0  0  0  0  0  0  0
    6.3096   40.7695   48.8049 H   0  0  0  0  0  0  0  0  0  0  0  0
    7.6408   42.8563   49.1611 H   0  0  0  0  0  0  0  0  0  0  0  0
    5.9771   43.1368   48.4973 H   0  0  0  0  0  0  0  0  0  0  0  0
   10.2290   46.3640   52.3440 H   0  0  0  0  0  0  0  0  0  0  0  0
   11.0496   47.3597   54.5933 H   0  0  0  0  0  0  0  0  0  0  0  0
    2.7213   47.2814   52.1081 H   0  0  0  0  0  0  0  0  0  0  0  0
    0.6667   45.9469   51.6862 H   0  0  0  0  0  0  0  0  0  0  0  0
  1  2  1  0
  2  3  2  0
  2  4  1  0
  4  5  2  0
  5  6  1  0
  6  7  2  0
  7  8  1  0
  8  9  1  0
  9 10  2  0
 10 11  1  0
 11 12  1  0
 12 13  1  0
 13 14  1  0
 14 15  1  0
 15 16  1  0
 16 17  1  0
 17 18  1  0
 18 19  1  0
 11 20  2  0
 20 21  1  0
 21 22  1  0
 22 23  2  0
 23 24  1  0
 24 25  2  0
  7 26  1  0
 26 27  2  0
 27  4  1  0
 25  9  1  0
 19 14  1  0
 24 20  1  0
  1 28  1  0
  1 29  1  0
  1 30  1  0
  5 31  1  0
  6 32  1  0
  8 33  1  0
 13 34  1  0
 13 35  1  0
 14 36  1  0
 15 37  1  0
 15 38  1  0
 16 39  1  0
 16 40  1  0
 17 41  1  0
 17 42  1  0
 18 43  1  0
 18 44  1  0
 19 45  1  0
 19 46  1  0
 21 47  1  0
 22 48  1  0
 26 49  1  0
 27 50  1  0
M  END
>  <meeko>  (11) 
{"is_sidechain": false}

>  <CID>  (11) 
5329565

>  <pose_index>  (11) 
1

>  <docking_score>  (11) 
-9.365

>  <num_viable_poses>  (11) 
5

>  <rmsd_pairwise_std>  (11) 
0.36420753228394936

>  <rmsd_to_best_std>  (11) 
0.3247123196773931

>  <MWT>  (11) 
385.4929999999997

>  <TPSA>  (11) 
92.78999999999999

>  <logP>  (11) 
3.793000000000002

>  <HBD>  (11) 
2

>  <HBA>  (11) 
6

>  <SMILES>  (11) 
[H]c1c([H])c(S(=O)C([H])([H])[H])c([H])c([H])c1N([H])c1nc(OC([H])([H])C2([H])C([H])([H])C([H])([H])C([H])([H])C([H])([H])C2([H])[H])c2c(n1)nc([H])n2[H]

$$$$
5329573_pose1
     RDKit          3D

 49 52  0  0  0  0  0  0  0  0999 V2000
   -0.2350   41.7200   53.5030 N   0  0  0  0  0  0  0  0  0  0  0  0
   -0.2100   42.8610   53.2880 C   0  0  0  0  0  0  0  0  0  0  0  0
   -0.2220   44.3030   53.0030 C   0  0  0  0  0  0  0  0  0  0  0  0
    1.0420   45.0010   53.4440 C   0  0  0  0  0  0  0  0  0  0  0  0
    1.5990   46.0260   52.6730 C   0  0  0  0  0  0  0  0  0  0  0  0
    2.7690   46.6700   53.0910 C   0  0  0  0  0  0  0  0  0  0  0  0
    3.4130   46.3220   54.2890 C   0  0  0  0  0  0  0  0  0  0  0  0
    4.6000   46.9820   54.6240 N   0  0  0  0  0  0  0  0  0  0  0  0
    5.9200   46.8870   54.1800 C   0  0  0  0  0  0  0  0  0  0  0  0
    6.0390   46.3370   52.9500 N   0  0  0  0  0  0  0  0  0  0  0  0
    7.2600   46.1870   52.4030 C   0  0  0  0  0  0  0  0  0  0  0  0
    7.4380   45.6620   51.1460 O   0  0  0  0  0  0  0  0  0  0  0  0
    6.2460   45.2790   50.4560 C   0  0  0  0  0  0  0  0  0  0  0  0
    5.7970   43.8550   50.8340 C   0  0  0  0  0  0  0  0  0  0  0  0
    4.3100   43.7950   51.2160 C   0  0  0  0  0  0  0  0  0  0  0  0
    3.8900   42.3790   51.6070 C   0  0  0  0  0  0  0  0  0  0  0  0
    4.2050   41.3760   50.5020 C   0  0  0  0  0  0  0  0  0  0  0  0
    5.6730   41.4340   50.0940 C   0  0  0  0  0  0  0  0  0  0  0  0
    6.0950   42.8500   49.7080 C   0  0  0  0  0  0  0  0  0  0  0  0
    8.3400   46.6060   53.1320 C   0  0  0  0  0  0  0  0  0  0  0  0
    9.6890   46.6360   52.9320 N   0  0  0  0  0  0  0  0  0  0  0  0
   10.2530   47.1840   54.0520 C   0  0  0  0  0  0  0  0  0  0  0  0
    9.3440   47.5030   54.9480 N   0  0  0  0  0  0  0  0  0  0  0  0
    8.1480   47.1480   54.3830 C   0  0  0  0  0  0  0  0  0  0  0  0
    6.9380   47.3020   54.9390 N   0  0  0  0  0  0  0  0  0  0  0  0
    2.8500   45.2920   55.0460 C   0  0  0  0  0  0  0  0  0  0  0  0
    1.6740   44.6450   54.6390 C   0  0  0  0  0  0  0  0  0  0  0  0
   -0.3412   44.4452   51.9188 H   0  0  0  0  0  0  0  0  0  0  0  0
   -1.0562   44.7437   53.5686 H   0  0  0  0  0  0  0  0  0  0  0  0
    1.1147   46.3278   51.7326 H   0  0  0  0  0  0  0  0  0  0  0  0
    3.1946   47.4685   52.4655 H   0  0  0  0  0  0  0  0  0  0  0  0
    4.5740   47.5720   55.4420 H   0  0  0  0  0  0  0  0  0  0  0  0
    5.4431   45.9854   50.7137 H   0  0  0  0  0  0  0  0  0  0  0  0
    6.4564   45.2952   49.3764 H   0  0  0  0  0  0  0  0  0  0  0  0
    6.3840   43.5725   51.7204 H   0  0  0  0  0  0  0  0  0  0  0  0
    4.1320   44.4687   52.0671 H   0  0  0  0  0  0  0  0  0  0  0  0
    3.7162   44.1028   50.3427 H   0  0  0  0  0  0  0  0  0  0  0  0
    4.4291   42.0858   52.5199 H   0  0  0  0  0  0  0  0  0  0  0  0
    2.8030   42.3761   51.7754 H   0  0  0  0  0  0  0  0  0  0  0  0
    3.9745   40.3628   50.8630 H   0  0  0  0  0  0  0  0  0  0  0  0
    3.5932   41.6283   49.6233 H   0  0  0  0  0  0  0  0  0  0  0  0
    6.2915   41.0950   50.9381 H   0  0  0  0  0  0  0  0  0  0  0  0
    5.8120   40.7833   49.2181 H   0  0  0  0  0  0  0  0  0  0  0  0
    7.1751   42.8566   49.4999 H   0  0  0  0  0  0  0  0  0  0  0  0
    5.5223   43.1498   48.8180 H   0  0  0  0  0  0  0  0  0  0  0  0
   10.1750   46.3170   52.1040 H   0  0  0  0  0  0  0  0  0  0  0  0
   11.3337   47.3388   54.1866 H   0  0  0  0  0  0  0  0  0  0  0  0
    3.3392   44.9817   55.9811 H   0  0  0  0  0  0  0  0  0  0  0  0
    1.2448   43.8497   55.2662 H   0  0  0  0  0  0  0  0  0  0  0  0
  1  2  3  0
  2  3  1  0
  3  4  1  0
  4  5  2  0
  5  6  1  0
  6  7  2  0
  7  8  1  0
  8  9  1  0
  9 10  2  0
 10 11  1  0
 11 12  1  0
 12 13  1  0
 13 14  1  0
 14 15  1  0
 15 16  1  0
 16 17  1  0
 17 18  1  0
 18 19  1  0
 11 20  2  0
 20 21  1  0
 21 22  1  0
 22 23  2  0
 23 24  1  0
 24 25  2  0
  7 26  1  0
 26 27  2  0
 27  4  1  0
 25  9  1  0
 19 14  1  0
 24 20  1  0
  3 28  1  0
  3 29  1  0
  5 30  1  0
  6 31  1  0
  8 32  1  0
 13 33  1  0
 13 34  1  0
 14 35  1  0
 15 36  1  0
 15 37  1  0
 16 38  1  0
 16 39  1  0
 17 40  1  0
 17 41  1  0
 18 42  1  0
 18 43  1  0
 19 44  1  0
 19 45  1  0
 21 46  1  0
 22 47  1  0
 26 48  1  0
 27 49  1  0
M  END
>  <meeko>  (12) 
{"is_sidechain": false}

>  <CID>  (12) 
5329573

>  <pose_index>  (12) 
1

>  <docking_score>  (12) 
-9.208

>  <num_viable_poses>  (12) 
6

>  <rmsd_pairwise_std>  (12) 
0.32450951930215466

>  <rmsd_to_best_std>  (12) 
0.4700040038890122

>  <MWT>  (12) 
362.4369999999996

>  <TPSA>  (12) 
99.50999999999999

>  <logP>  (12) 
4.121680000000002

>  <HBD>  (12) 
2

>  <HBA>  (12) 
6

>  <SMILES>  (12) 
[H]c1c([H])c(C([H])([H])C#N)c([H])c([H])c1N([H])c1nc(OC([H])([H])C2([H])C([H])([H])C([H])([H])C([H])([H])C([H])([H])C2([H])[H])c2c(n1)nc([H])n2[H]

$$$$
76328458_pose1
     RDKit          3D

 45 48  0  0  0  0  0  0  0  0999 V2000
    1.1230   45.6530   56.1490 N   0  0  0  0  0  0  0  0  0  0  0  0
    2.1870   45.3140   55.3330 C   0  0  0  0  0  0  0  0  0  0  0  0
    3.4000   45.7360   55.7310 N   0  0  0  0  0  0  0  0  0  0  0  0
    4.4700   45.4280   54.9770 C   0  0  0  0  0  0  0  0  0  0  0  0
    5.7430   45.8150   55.3220 O   0  0  0  0  0  0  0  0  0  0  0  0
    6.2580   46.9500   54.6230 C   0  0  0  0  0  0  0  0  0  0  0  0
    7.4490   46.5740   53.7250 C   0  0  0  0  0  0  0  0  0  0  0  0
    8.7760   47.1350   54.2770 C   0  0  0  0  0  0  0  0  0  0  0  0
    9.8750   47.2700   53.2200 C   0  0  0  0  0  0  0  0  0  0  0  0
    9.7020   46.2750   52.0810 C   0  0  0  0  0  0  0  0  0  0  0  0
    8.3660   46.4650   51.3620 C   0  0  0  0  0  0  0  0  0  0  0  0
    7.2530   47.0020   52.2670 C   0  0  0  0  0  0  0  0  0  0  0  0
    4.2650   44.6660   53.8550 C   0  0  0  0  0  0  0  0  0  0  0  0
    5.0630   44.1500   52.8800 N   0  0  0  0  0  0  0  0  0  0  0  0
    4.2690   43.4470   51.9970 C   0  0  0  0  0  0  0  0  0  0  0  0
    4.7650   42.7430   50.8080 C   0  0  0  0  0  0  0  0  0  0  0  0
    5.9000   43.2390   50.1480 C   0  0  0  0  0  0  0  0  0  0  0  0
    6.4110   42.6030   49.0130 C   0  0  0  0  0  0  0  0  0  0  0  0
    5.7920   41.4580   48.5200 C   0  0  0  0  0  0  0  0  0  0  0  0
    4.6640   40.9510   49.1610 C   0  0  0  0  0  0  0  0  0  0  0  0
    4.1530   41.5880   50.2970 C   0  0  0  0  0  0  0  0  0  0  0  0
    3.0030   43.5080   52.3880 N   0  0  0  0  0  0  0  0  0  0  0  0
    2.9930   44.2590   53.5300 C   0  0  0  0  0  0  0  0  0  0  0  0
    1.9110   44.5680   54.2630 N   0  0  0  0  0  0  0  0  0  0  0  0
    1.2360   46.5970   56.4890 H   0  0  0  0  0  0  0  0  0  0  0  0
    0.9770   44.9240   56.8340 H   0  0  0  0  0  0  0  0  0  0  0  0
    5.4598   47.3751   53.9968 H   0  0  0  0  0  0  0  0  0  0  0  0
    6.6074   47.6809   55.3671 H   0  0  0  0  0  0  0  0  0  0  0  0
    7.5011   45.4753   53.7375 H   0  0  0  0  0  0  0  0  0  0  0  0
    8.5813   48.1297   54.7043 H   0  0  0  0  0  0  0  0  0  0  0  0
    9.1395   46.4187   55.0285 H   0  0  0  0  0  0  0  0  0  0  0  0
    9.8466   48.2893   52.8074 H   0  0  0  0  0  0  0  0  0  0  0  0
   10.8393   47.0621   53.7067 H   0  0  0  0  0  0  0  0  0  0  0  0
   10.5190   46.4153   51.3580 H   0  0  0  0  0  0  0  0  0  0  0  0
    9.7214   45.2606   52.5060 H   0  0  0  0  0  0  0  0  0  0  0  0
    8.5142   47.1747   50.5348 H   0  0  0  0  0  0  0  0  0  0  0  0
    8.0453   45.4733   51.0104 H   0  0  0  0  0  0  0  0  0  0  0  0
    7.2514   48.1008   52.2156 H   0  0  0  0  0  0  0  0  0  0  0  0
    6.2965   46.5883   51.9148 H   0  0  0  0  0  0  0  0  0  0  0  0
    6.0630   44.2690   52.8210 H   0  0  0  0  0  0  0  0  0  0  0  0
    6.3958   44.1434   50.5303 H   0  0  0  0  0  0  0  0  0  0  0  0
    7.3017   43.0071   48.5098 H   0  0  0  0  0  0  0  0  0  0  0  0
    6.1922   40.9552   47.6272 H   0  0  0  0  0  0  0  0  0  0  0  0
    4.1732   40.0464   48.7726 H   0  0  0  0  0  0  0  0  0  0  0  0
    3.2616   41.1790   50.7952 H   0  0  0  0  0  0  0  0  0  0  0  0
  1  2  1  0
  2  3  2  0
  3  4  1  0
  4  5  1  0
  5  6  1  0
  6  7  1  0
  7  8  1  0
  8  9  1  0
  9 10  1  0
 10 11  1  0
 11 12  1  0
  4 13  2  0
 13 14  1  0
 14 15  1  0
 15 16  1  0
 16 17  2  0
 17 18  1  0
 18 19  2  0
 19 20  1  0
 20 21  2  0
 15 22  2  0
 22 23  1  0
 23 24  2  0
 24  2  1  0
 12  7  1  0
 23 13  1  0
 21 16  1  0
  1 25  1  0
  1 26  1  0
  6 27  1  0
  6 28  1  0
  7 29  1  0
  8 30  1  0
  8 31  1  0
  9 32  1  0
  9 33  1  0
 10 34  1  0
 10 35  1  0
 11 36  1  0
 11 37  1  0
 12 38  1  0
 12 39  1  0
 14 40  1  0
 17 41  1  0
 18 42  1  0
 19 43  1  0
 20 44  1  0
 21 45  1  0
M  END
>  <meeko>  (13) 
{"is_sidechain": false}

>  <CID>  (13) 
76328458

>  <pose_index>  (13) 
1

>  <docking_score>  (13) 
-9.436

>  <num_viable_poses>  (13) 
7

>  <rmsd_pairwise_std>  (13) 
0.3497636650658923

>  <rmsd_to_best_std>  (13) 
0.3512393025180542

>  <MWT>  (13) 
323.3999999999996

>  <TPSA>  (13) 
89.71

>  <logP>  (13) 
3.5612000000000013

>  <HBD>  (13) 
2

>  <HBA>  (13) 
5

>  <SMILES>  (13) 
[H]c1c([H])c([H])c(-c2nc3nc(N([H])[H])nc(OC([H])([H])C4([H])C([H])([H])C([H])([H])C([H])([H])C([H])([H])C4([H])[H])c3n2[H])c([H])c1[H]

$$$$
COLIG_2A6_pose1
     RDKit          3D

 45 48  0  0  0  0  0  0  0  0999 V2000
    7.2120   42.5960   49.3080 C   0  0  0  0  0  0  0  0  0  0  0  0
    6.9790   43.9190   49.6710 C   0  0  0  0  0  0  0  0  0  0  0  0
    5.8510   44.2550   50.4290 C   0  0  0  0  0  0  0  0  0  0  0  0
    4.9370   43.2800   50.8410 C   0  0  0  0  0  0  0  0  0  0  0  0
    3.7930   43.5490   51.6000 N   0  0  0  0  0  0  0  0  0  0  0  0
    3.5580   44.2030   52.8090 C   0  0  0  0  0  0  0  0  0  0  0  0
    4.6270   44.8960   53.2640 N   0  0  0  0  0  0  0  0  0  0  0  0
    4.5330   45.5740   54.4240 C   0  0  0  0  0  0  0  0  0  0  0  0
    5.5930   46.2890   54.9350 O   0  0  0  0  0  0  0  0  0  0  0  0
    6.8430   46.0630   54.2750 C   0  0  0  0  0  0  0  0  0  0  0  0
    7.4830   47.3830   53.7980 C   0  0  0  0  0  0  0  0  0  0  0  0
    8.9070   47.5460   54.3510 C   0  0  0  0  0  0  0  0  0  0  0  0
    9.9200   46.6260   53.6720 C   0  0  0  0  0  0  0  0  0  0  0  0
    9.8960   46.7840   52.1540 C   0  0  0  0  0  0  0  0  0  0  0  0
    8.4920   46.5990   51.5830 C   0  0  0  0  0  0  0  0  0  0  0  0
    7.4810   47.5190   52.2650 C   0  0  0  0  0  0  0  0  0  0  0  0
    3.3440   45.5260   55.0980 C   0  0  0  0  0  0  0  0  0  0  0  0
    2.8710   46.0560   56.2640 N   0  0  0  0  0  0  0  0  0  0  0  0
    1.5750   45.6380   56.4000 C   0  0  0  0  0  0  0  0  0  0  0  0
    1.1990   44.8780   55.3940 N   0  0  0  0  0  0  0  0  0  0  0  0
    2.2970   44.8020   54.5770 C   0  0  0  0  0  0  0  0  0  0  0  0
    2.3740   44.1230   53.4240 N   0  0  0  0  0  0  0  0  0  0  0  0
    5.1930   41.9500   50.4630 C   0  0  0  0  0  0  0  0  0  0  0  0
    6.3170   41.6090   49.7050 C   0  0  0  0  0  0  0  0  0  0  0  0
    8.0979   42.3330   48.7113 H   0  0  0  0  0  0  0  0  0  0  0  0
    7.6842   44.7042   49.3610 H   0  0  0  0  0  0  0  0  0  0  0  0
    5.6804   45.3058   50.7058 H   0  0  0  0  0  0  0  0  0  0  0  0
    2.9140   43.2180   51.2300 H   0  0  0  0  0  0  0  0  0  0  0  0
    7.5308   45.5657   54.9747 H   0  0  0  0  0  0  0  0  0  0  0  0
    6.6559   45.4339   53.3923 H   0  0  0  0  0  0  0  0  0  0  0  0
    6.8568   48.1937   54.1988 H   0  0  0  0  0  0  0  0  0  0  0  0
    9.2243   48.5884   54.2005 H   0  0  0  0  0  0  0  0  0  0  0  0
    8.8791   47.2750   55.4167 H   0  0  0  0  0  0  0  0  0  0  0  0
   10.9272   46.8710   54.0402 H   0  0  0  0  0  0  0  0  0  0  0  0
    9.6548   45.5860   53.9131 H   0  0  0  0  0  0  0  0  0  0  0  0
   10.2547   47.7913   51.8958 H   0  0  0  0  0  0  0  0  0  0  0  0
   10.5445   46.0082   51.7208 H   0  0  0  0  0  0  0  0  0  0  0  0
    8.5117   46.8259   50.5068 H   0  0  0  0  0  0  0  0  0  0  0  0
    8.1834   45.5581   51.7598 H   0  0  0  0  0  0  0  0  0  0  0  0
    7.7233   48.5600   52.0051 H   0  0  0  0  0  0  0  0  0  0  0  0
    6.4809   47.2294   51.9102 H   0  0  0  0  0  0  0  0  0  0  0  0
    3.3860   46.6450   56.9030 H   0  0  0  0  0  0  0  0  0  0  0  0
    0.9265   45.9050   57.2474 H   0  0  0  0  0  0  0  0  0  0  0  0
    4.4926   41.1596   50.7709 H   0  0  0  0  0  0  0  0  0  0  0  0
    6.4932   40.5605   49.4229 H   0  0  0  0  0  0  0  0  0  0  0  0
  1  2  2  0
  2  3  1  0
  3  4  2  0
  4  5  1  0
  5  6  1  0
  6  7  2  0
  7  8  1  0
  8  9  1  0
  9 10  1  0
 10 11  1  0
 11 12  1  0
 12 13  1  0
 13 14  1  0
 14 15  1  0
 15 16  1  0
  8 17  2  0
 17 18  1  0
 18 19  1  0
 19 20  2  0
 20 21  1  0
 21 22  2  0
  4 23  1  0
 23 24  2  0
 24  1  1  0
 22  6  1  0
 16 11  1  0
 21 17  1  0
  1 25  1  0
  2 26  1  0
  3 27  1  0
  5 28  1  0
 10 29  1  0
 10 30  1  0
 11 31  1  0
 12 32  1  0
 12 33  1  0
 13 34  1  0
 13 35  1  0
 14 36  1  0
 14 37  1  0
 15 38  1  0
 15 39  1  0
 16 40  1  0
 16 41  1  0
 18 42  1  0
 19 43  1  0
 23 44  1  0
 24 45  1  0
M  END
>  <meeko>  (14) 
{"is_sidechain": false}

>  <CID>  (14) 
COLIG_2A6

>  <pose_index>  (14) 
1

>  <docking_score>  (14) 
-9.66

>  <num_viable_poses>  (14) 
5

>  <rmsd_pairwise_std>  (14) 
0.24390093590748063

>  <rmsd_to_best_std>  (14) 
0.18327107615123675

>  <MWT>  (14) 
323.39999999999964

>  <TPSA>  (14) 
75.72

>  <logP>  (14) 
4.055600000000003

>  <HBD>  (14) 
2

>  <HBA>  (14) 
5

>  <SMILES>  (14) 
[H]c1c([H])c([H])c(N([H])c2nc(OC([H])([H])C3([H])C([H])([H])C([H])([H])C([H])([H])C([H])([H])C3([H])[H])c3c(n2)nc([H])n3[H])c([H])c1[H]

$$$$
Z1013695804_pose1
     RDKit          3D

 41 44  0  0  0  0  0  0  0  0999 V2000
   10.8380   47.5430   55.1200 F   0  0  0  0  0  0  0  0  0  0  0  0
    9.9090   47.2010   54.2190 C   0  0  0  0  0  0  0  0  0  0  0  0
    8.5660   47.3120   54.5420 C   0  0  0  0  0  0  0  0  0  0  0  0
    7.6010   46.9530   53.5980 C   0  0  0  0  0  0  0  0  0  0  0  0
    7.9640   46.4770   52.3240 C   0  0  0  0  0  0  0  0  0  0  0  0
    6.9470   46.1400   51.4250 N   0  0  0  0  0  0  0  0  0  0  0  0
    6.0750   45.0620   51.3010 C   0  0  0  0  0  0  0  0  0  0  0  0
    5.0080   44.9170   52.0830 N   0  0  0  0  0  0  0  0  0  0  0  0
    4.2010   43.8500   51.8980 C   0  0  0  0  0  0  0  0  0  0  0  0
    3.0680   43.7280   52.7410 N   0  0  0  0  0  0  0  0  0  0  0  0
    1.7910   43.6700   52.0180 C   0  0  0  0  0  0  0  0  0  0  0  0
    1.3840   45.0610   51.5180 C   0  0  0  0  0  0  0  0  0  0  0  0
    1.7220   46.1800   52.5080 C   0  0  0  0  0  0  0  0  0  0  0  0
    1.9640   45.6440   53.9120 C   0  0  0  0  0  0  0  0  0  0  0  0
    3.0530   44.5660   53.9500 C   0  0  0  0  0  0  0  0  0  0  0  0
    4.4630   42.8790   50.9180 C   0  0  0  0  0  0  0  0  0  0  0  0
    3.7040   41.7560   50.6920 N   0  0  0  0  0  0  0  0  0  0  0  0
    4.1140   40.9260   49.7180 C   0  0  0  0  0  0  0  0  0  0  0  0
    5.2400   41.1940   48.9810 C   0  0  0  0  0  0  0  0  0  0  0  0
    5.9920   42.2960   49.1940 N   0  0  0  0  0  0  0  0  0  0  0  0
    5.6160   43.1400   50.1630 C   0  0  0  0  0  0  0  0  0  0  0  0
    6.3940   44.1980   50.3410 N   0  0  0  0  0  0  0  0  0  0  0  0
    9.3290   46.3810   52.0300 C   0  0  0  0  0  0  0  0  0  0  0  0
   10.3010   46.7380   52.9720 C   0  0  0  0  0  0  0  0  0  0  0  0
    8.2624   47.6797   55.5333 H   0  0  0  0  0  0  0  0  0  0  0  0
    6.5355   47.0441   53.8555 H   0  0  0  0  0  0  0  0  0  0  0  0
    6.7450   46.8060   50.6920 H   0  0  0  0  0  0  0  0  0  0  0  0
    1.8947   42.9935   51.1569 H   0  0  0  0  0  0  0  0  0  0  0  0
    1.0143   43.3010   52.7039 H   0  0  0  0  0  0  0  0  0  0  0  0
    1.9093   45.2602   50.5723 H   0  0  0  0  0  0  0  0  0  0  0  0
    0.2915   45.0561   51.3903 H   0  0  0  0  0  0  0  0  0  0  0  0
    2.6299   46.6969   52.1636 H   0  0  0  0  0  0  0  0  0  0  0  0
    0.8646   46.8679   52.5496 H   0  0  0  0  0  0  0  0  0  0  0  0
    2.2709   46.4783   54.5599 H   0  0  0  0  0  0  0  0  0  0  0  0
    1.0271   45.1846   54.2601 H   0  0  0  0  0  0  0  0  0  0  0  0
    4.0317   45.0584   54.0485 H   0  0  0  0  0  0  0  0  0  0  0  0
    2.8389   43.9089   54.8058 H   0  0  0  0  0  0  0  0  0  0  0  0
    3.5359   40.0142   49.5074 H   0  0  0  0  0  0  0  0  0  0  0  0
    5.5399   40.4891   48.1916 H   0  0  0  0  0  0  0  0  0  0  0  0
    9.6438   46.0183   51.0404 H   0  0  0  0  0  0  0  0  0  0  0  0
   11.3693   46.6518   52.7245 H   0  0  0  0  0  0  0  0  0  0  0  0
  1  2  1  0
  2  3  2  0
  3  4  1  0
  4  5  2  0
  5  6  1  0
  6  7  1  0
  7  8  2  0
  8  9  1  0
  9 10  1  0
 10 11  1  0
 11 12  1  0
 12 13  1  0
 13 14  1  0
 14 15  1  0
  9 16  2  0
 16 17  1  0
 17 18  2  0
 18 19  1  0
 19 20  2  0
 20 21  1  0
 21 22  2  0
  5 23  1  0
 23 24  2  0
 24  2  1  0
 22  7  1  0
 15 10  1  0
 21 16  1  0
  3 25  1  0
  4 26  1  0
  6 27  1  0
 11 28  1  0
 11 29  1  0
 12 30  1  0
 12 31  1  0
 13 32  1  0
 13 33  1  0
 14 34  1  0
 14 35  1  0
 15 36  1  0
 15 37  1  0
 18 38  1  0
 19 39  1  0
 23 40  1  0
 24 41  1  0
M  END
>  <meeko>  (15) 
{"is_sidechain": false}

>  <CID>  (15) 
Z1013695804

>  <pose_index>  (15) 
1

>  <docking_score>  (15) 
-9.448

>  <num_viable_poses>  (15) 
7

>  <rmsd_pairwise_std>  (15) 
0.4868603435346714

>  <rmsd_to_best_std>  (15) 
0.296400321289518

>  <MWT>  (15) 
324.3629999999997

>  <TPSA>  (15) 
66.83000000000001

>  <logP>  (15) 
3.2928000000000015

>  <HBD>  (15) 
1

>  <HBA>  (15) 
6

>  <SMILES>  (15) 
[H]c1nc2nc(N([H])c3c([H])c([H])c(F)c([H])c3[H])nc(N3C([H])([H])C([H])([H])C([H])([H])C([H])([H])C3([H])[H])c2nc1[H]

$$$$
Z1039088436_pose1
     RDKit          3D

 48 51  0  0  0  0  0  0  0  0999 V2000
    3.2670   42.6480   51.7710 C   0  0  0  0  0  0  0  0  0  0  0  0
    3.5180   43.6240   52.6720 N   0  0  0  0  0  0  0  0  0  0  0  0
    2.5490   44.5490   52.9270 C   0  0  0  0  0  0  0  0  0  0  0  0
    2.7650   45.5510   53.8780 N   0  0  0  0  0  0  0  0  0  0  0  0
    3.1990   46.8340   53.3300 C   0  0  0  0  0  0  0  0  0  0  0  0
    4.6850   46.7600   52.9790 C   0  0  0  0  0  0  0  0  0  0  0  0
    5.5400   46.3050   54.1810 C   0  0  0  0  0  0  0  0  0  0  0  0
    7.0070   46.0890   53.7700 C   0  0  0  0  0  0  0  0  0  0  0  0
    7.6500   47.3690   53.2450 N   0  0  0  0  0  4  0  0  0  0  0  0
    8.0470   47.3160   51.7820 C   0  0  0  0  0  0  0  0  0  0  0  0
    9.5480   47.1090   51.5980 C   0  0  0  0  0  0  0  0  0  0  0  0
   10.1740   46.2960   52.7200 C   0  0  0  0  0  0  0  0  0  0  0  0
    9.9670   46.9660   54.0770 C   0  0  0  0  0  0  0  0  0  0  0  0
    8.7570   47.8930   54.1230 C   0  0  0  0  0  0  0  0  0  0  0  0
    4.9590   45.0830   54.9190 C   0  0  0  0  0  0  0  0  0  0  0  0
    3.4440   45.1590   55.1120 C   0  0  0  0  0  0  0  0  0  0  0  0
    1.3460   44.4440   52.1950 C   0  0  0  0  0  0  0  0  0  0  0  0
    0.0990   45.1330   52.1510 C   0  0  0  0  0  0  0  0  0  0  0  0
   -0.6920   44.5200   51.2030 C   0  0  0  0  0  0  0  0  0  0  0  0
    0.0210   43.4720   50.6800 N   0  0  0  0  0  0  0  0  0  0  0  0
    1.2520   43.4100   51.2760 C   0  0  0  0  0  0  0  0  0  0  0  0
    2.1810   42.4830   51.0070 N   0  0  0  0  0  0  0  0  0  0  0  0
    4.0572   41.8923   51.6504 H   0  0  0  0  0  0  0  0  0  0  0  0
    2.6187   47.0610   52.4235 H   0  0  0  0  0  0  0  0  0  0  0  0
    3.0368   47.6258   54.0761 H   0  0  0  0  0  0  0  0  0  0  0  0
    4.8203   46.0437   52.1553 H   0  0  0  0  0  0  0  0  0  0  0  0
    5.0164   47.7676   52.6878 H   0  0  0  0  0  0  0  0  0  0  0  0
    5.5110   47.1272   54.9111 H   0  0  0  0  0  0  0  0  0  0  0  0
    7.5734   45.7411   54.6464 H   0  0  0  0  0  0  0  0  0  0  0  0
    7.0261   45.3438   52.9611 H   0  0  0  0  0  0  0  0  0  0  0  0
    6.9190   48.0970   53.2830 H   0  0  0  0  0  0  0  0  0  0  0  0
    7.5131   46.4836   51.3002 H   0  0  0  0  0  0  0  0  0  0  0  0
    7.7811   48.2807   51.3252 H   0  0  0  0  0  0  0  0  0  0  0  0
    9.7159   46.5825   50.6469 H   0  0  0  0  0  0  0  0  0  0  0  0
   10.0219   48.1017   51.6049 H   0  0  0  0  0  0  0  0  0  0  0  0
    9.7118   45.2980   52.7395 H   0  0  0  0  0  0  0  0  0  0  0  0
   11.2553   46.2222   52.5320 H   0  0  0  0  0  0  0  0  0  0  0  0
    9.8323   46.1807   54.8354 H   0  0  0  0  0  0  0  0  0  0  0  0
   10.8552   47.5859   54.2691 H   0  0  0  0  0  0  0  0  0  0  0  0
    8.3941   47.9617   55.1591 H   0  0  0  0  0  0  0  0  0  0  0  0
    9.0583   48.8857   53.7572 H   0  0  0  0  0  0  0  0  0  0  0  0
    5.1922   44.1796   54.3364 H   0  0  0  0  0  0  0  0  0  0  0  0
    5.4148   45.0589   55.9198 H   0  0  0  0  0  0  0  0  0  0  0  0
    3.0738   44.1717   55.4254 H   0  0  0  0  0  0  0  0  0  0  0  0
    3.2317   45.9187   55.8787 H   0  0  0  0  0  0  0  0  0  0  0  0
   -0.1825   46.0010   52.7653 H   0  0  0  0  0  0  0  0  0  0  0  0
   -1.7117   44.8179   50.9175 H   0  0  0  0  0  0  0  0  0  0  0  0
   -0.3010   42.8170   49.9810 H   0  0  0  0  0  0  0  0  0  0  0  0
  1  2  2  0
  2  3  1  0
  3  4  1  0
  4  5  1  0
  5  6  1  0
  6  7  1  0
  7  8  1  0
  8  9  1  0
  9 10  1  0
 10 11  1  0
 11 12  1  0
 12 13  1  0
 13 14  1  0
  7 15  1  0
 15 16  1  0
  3 17  2  0
 17 18  1  0
 18 19  2  0
 19 20  1  0
 20 21  1  0
 21 22  2  0
 22  1  1  0
 16  4  1  0
 21 17  1  0
 14  9  1  0
  1 23  1  0
  5 24  1  0
  5 25  1  0
  6 26  1  0
  6 27  1  0
  7 28  1  0
  8 29  1  0
  8 30  1  0
  9 31  1  0
 10 32  1  0
 10 33  1  0
 11 34  1  0
 11 35  1  0
 12 36  1  0
 12 37  1  0
 13 38  1  0
 13 39  1  0
 14 40  1  0
 14 41  1  0
 15 42  1  0
 15 43  1  0
 16 44  1  0
 16 45  1  0
 18 46  1  0
 19 47  1  0
 20 48  1  0
M  CHG  1   9   1
M  END
>  <meeko>  (16) 
{"is_sidechain": false}

>  <CID>  (16) 
Z1039088436

>  <pose_index>  (16) 
1

>  <docking_score>  (16) 
-8.479

>  <num_viable_poses>  (16) 
8

>  <rmsd_pairwise_std>  (16) 
0.3922839370162043

>  <rmsd_to_best_std>  (16) 
0.17180085118447158

>  <MWT>  (16) 
300.4299999999995

>  <TPSA>  (16) 
49.25

>  <logP>  (16) 
1.2430999999999994

>  <HBD>  (16) 
2

>  <HBA>  (16) 
3

>  <SMILES>  (16) 
[H]c1nc(N2C([H])([H])C([H])([H])C([H])(C([H])([H])[N+]3([H])C([H])([H])C([H])([H])C([H])([H])C([H])([H])C3([H])[H])C([H])([H])C2([H])[H])c2c([H])c([H])n([H])c2n1

$$$$
Z1041114218_pose1
     RDKit          3D

 50 54  0  0  0  0  0  0  0  0999 V2000
    5.7580   41.5450   48.8070 C   0  0  0  0  0  0  0  0  0  0  0  0
    4.5880   40.7930   48.7630 C   0  0  0  0  0  0  0  0  0  0  0  0
    3.6070   40.9690   49.7440 C   0  0  0  0  0  0  0  0  0  0  0  0
    3.7680   41.9040   50.7780 C   0  0  0  0  0  0  0  0  0  0  0  0
    2.7580   42.0200   51.7460 N   0  0  0  0  0  0  0  0  0  0  0  0
    2.2760   43.1390   52.4840 C   0  0  0  0  0  0  0  0  0  0  0  0
    3.1360   44.0100   53.0480 N   0  0  0  0  0  0  0  0  0  0  0  0
    2.6470   45.0280   53.7590 C   0  0  0  0  0  0  0  0  0  0  0  0
    3.5260   45.9160   54.3540 N   0  0  0  0  0  0  0  0  0  0  0  0
    4.4350   45.4190   55.4000 C   0  0  0  0  0  0  0  0  0  0  0  0
    5.9070   45.4430   54.9270 C   0  0  0  0  0  0  0  0  0  0  0  0
    6.3360   46.7990   54.4810 N   0  0  0  0  0  0  0  0  0  0  0  0
    7.4920   46.7790   53.6890 C   0  0  0  0  0  0  0  0  0  0  0  0
    8.7220   47.1660   54.2520 C   0  0  0  0  0  0  0  0  0  0  0  0
    9.9070   47.1630   53.5100 C   0  0  0  0  0  0  0  0  0  0  0  0
    9.8900   46.7710   52.1770 C   0  0  0  0  0  0  0  0  0  0  0  0
    8.6890   46.3850   51.5920 C   0  0  0  0  0  0  0  0  0  0  0  0
    7.5050   46.3920   52.3420 C   0  0  0  0  0  0  0  0  0  0  0  0
    5.2260   47.7220   54.1520 C   0  0  0  0  0  0  0  0  0  0  0  0
    4.0500   46.9830   53.4820 C   0  0  0  0  0  0  0  0  0  0  0  0
    1.3390   45.2030   53.9450 N   0  0  0  0  0  0  0  0  0  0  0  0
    0.4900   44.3480   53.3890 C   0  0  0  0  0  0  0  0  0  0  0  0
   -0.8170   44.5650   53.5840 N   0  0  0  0  0  0  0  0  0  0  0  0
   -1.6960   43.7080   53.0160 C   0  0  0  0  0  0  0  0  0  0  0  0
   -1.2920   42.6390   52.2500 C   0  0  0  0  0  0  0  0  0  0  0  0
    0.0120   42.3910   52.0270 N   0  0  0  0  0  0  0  0  0  0  0  0
    0.8970   43.2560   52.6170 C   0  0  0  0  0  0  0  0  0  0  0  0
    4.9600   42.6340   50.8150 C   0  0  0  0  0  0  0  0  0  0  0  0
    5.9460   42.4620   49.8370 C   0  0  0  0  0  0  0  0  0  0  0  0
    6.5289   41.4156   48.0331 H   0  0  0  0  0  0  0  0  0  0  0  0
    4.4348   40.0604   47.9569 H   0  0  0  0  0  0  0  0  0  0  0  0
    2.6904   40.3621   49.7043 H   0  0  0  0  0  0  0  0  0  0  0  0
    2.0420   41.2980   51.7080 H   0  0  0  0  0  0  0  0  0  0  0  0
    4.3355   46.0547   56.2922 H   0  0  0  0  0  0  0  0  0  0  0  0
    4.1623   44.3784   55.6295 H   0  0  0  0  0  0  0  0  0  0  0  0
    6.5513   45.1242   55.7596 H   0  0  0  0  0  0  0  0  0  0  0  0
    5.9953   44.7625   54.0673 H   0  0  0  0  0  0  0  0  0  0  0  0
    8.7522   47.4798   55.3058 H   0  0  0  0  0  0  0  0  0  0  0  0
   10.8521   47.4708   53.9812 H   0  0  0  0  0  0  0  0  0  0  0  0
   10.8196   46.7661   51.5890 H   0  0  0  0  0  0  0  0  0  0  0  0
    8.6681   46.0732   50.5373 H   0  0  0  0  0  0  0  0  0  0  0  0
    6.5636   46.0865   51.8620 H   0  0  0  0  0  0  0  0  0  0  0  0
    4.8686   48.1946   55.0788 H   0  0  0  0  0  0  0  0  0  0  0  0
    5.6044   48.4759   53.4460 H   0  0  0  0  0  0  0  0  0  0  0  0
    3.2455   47.7035   53.2732 H   0  0  0  0  0  0  0  0  0  0  0  0
    4.4116   46.5252   52.5494 H   0  0  0  0  0  0  0  0  0  0  0  0
   -2.7725   43.8717   53.1722 H   0  0  0  0  0  0  0  0  0  0  0  0
   -2.0499   41.9736   51.8110 H   0  0  0  0  0  0  0  0  0  0  0  0
    5.1257   43.3566   51.6276 H   0  0  0  0  0  0  0  0  0  0  0  0
    6.8724   43.0533   49.8824 H   0  0  0  0  0  0  0  0  0  0  0  0
  1  2  2  0
  2  3  1  0
  3  4  2  0
  4  5  1  0
  5  6  1  0
  6  7  2  0
  7  8  1  0
  8  9  1  0
  9 10  1  0
 10 11  1  0
 11 12  1  0
 12 13  1  0
 13 14  2  0
 14 15  1  0
 15 16  2  0
 16 17  1  0
 17 18  2  0
 12 19  1  0
 19 20  1  0
  8 21  2  0
 21 22  1  0
 22 23  2  0
 23 24  1  0
 24 25  2  0
 25 26  1  0
 26 27  2  0
  4 28  1  0
 28 29  2  0
 29  1  1  0
 27  6  1  0
 20  9  1  0
 27 22  1  0
 18 13  1  0
  1 30  1  0
  2 31  1  0
  3 32  1  0
  5 33  1  0
 10 34  1  0
 10 35  1  0
 11 36  1  0
 11 37  1  0
 14 38  1  0
 15 39  1  0
 16 40  1  0
 17 41  1  0
 18 42  1  0
 19 43  1  0
 19 44  1  0
 20 45  1  0
 20 46  1  0
 24 47  1  0
 25 48  1  0
 28 49  1  0
 29 50  1  0
M  END
>  <meeko>  (17) 
{"is_sidechain": false}

>  <CID>  (17) 
Z1041114218

>  <pose_index>  (17) 
1

>  <docking_score>  (17) 
-10.583

>  <num_viable_poses>  (17) 
5

>  <rmsd_pairwise_std>  (17) 
0.3562496578334516

>  <rmsd_to_best_std>  (17) 
0.42334988941301993

>  <MWT>  (17) 
383.4589999999997

>  <TPSA>  (17) 
70.07000000000001

>  <logP>  (17) 
3.490000000000002

>  <HBD>  (17) 
1

>  <HBA>  (17) 
7

>  <SMILES>  (17) 
[H]c1nc2nc(N3C([H])([H])C([H])([H])N(c4c([H])c([H])c([H])c([H])c4[H])C([H])([H])C3([H])[H])nc(N([H])c3c([H])c([H])c([H])c([H])c3[H])c2nc1[H]

$$$$
Z107740192_pose1
     RDKit          3D

 54 57  0  0  0  0  0  0  0  0999 V2000
    6.1100   44.7170   56.1210 N   0  0  0  0  0  0  0  0  0  0  0  0
    5.4760   44.8650   55.1580 C   0  0  0  0  0  0  0  0  0  0  0  0
    4.6490   45.1490   53.9890 C   0  0  0  0  0  0  0  0  0  0  0  0
    3.1640   45.0630   54.2180 C   0  0  0  0  0  0  0  0  0  0  0  0
    2.6810   45.4490   55.4320 N   0  0  0  0  0  0  0  0  0  0  0  0
    1.3610   45.3150   55.6470 C   0  0  0  0  0  0  0  0  0  0  0  0
    0.8160   45.7010   56.8660 C   0  0  0  0  0  0  0  0  0  0  0  0
   -0.5480   45.5690   57.1240 C   0  0  0  0  0  0  0  0  0  0  0  0
   -1.3810   45.0400   56.1470 C   0  0  0  0  0  0  0  0  0  0  0  0
   -0.8420   44.6500   54.9200 C   0  0  0  0  0  0  0  0  0  0  0  0
    0.5170   44.7790   54.6530 C   0  0  0  0  0  0  0  0  0  0  0  0
    1.0010   44.3930   53.4570 N   0  0  0  0  0  0  0  0  0  0  0  0
    2.3200   44.5440   53.2210 C   0  0  0  0  0  0  0  0  0  0  0  0
    2.8520   44.1670   51.9700 N   0  0  0  0  0  0  0  0  0  0  0  0
    2.8590   42.7190   51.7300 C   0  0  0  0  0  0  0  0  0  0  0  0
    4.2240   42.2840   51.1610 C   0  0  0  0  0  0  0  0  0  0  0  0
    5.0460   43.4620   50.6200 C   0  0  0  0  0  0  0  0  0  0  0  0
    6.4370   43.0220   50.1560 C   0  0  0  0  0  0  0  0  0  0  0  0
    6.4980   41.5690   49.6840 C   0  0  0  0  0  0  0  0  0  0  0  0
    5.1800   41.1250   49.0670 C   0  0  0  0  0  0  0  0  0  0  0  0
    4.0170   41.2260   50.0580 C   0  0  0  0  0  0  0  0  0  0  0  0
    5.0150   46.8210   53.4930 S   0  0  0  0  0  0  0  0  0  0  0  0
    4.9230   47.7340   54.6170 O   0  0  0  0  0  0  0  0  0  0  0  0
    4.2870   47.1250   52.2670 O   0  0  0  0  0  0  0  0  0  0  0  0
    6.7350   46.7680   53.0050 C   0  0  0  0  0  0  0  0  0  0  0  0
    7.0810   46.3140   51.7260 C   0  0  0  0  0  0  0  0  0  0  0  0
    8.4270   46.2620   51.3620 C   0  0  0  0  0  0  0  0  0  0  0  0
    9.4040   46.6470   52.2740 C   0  0  0  0  0  0  0  0  0  0  0  0
   10.6950   46.5930   51.9210 F   0  0  0  0  0  0  0  0  0  0  0  0
    9.0640   47.0800   53.5530 C   0  0  0  0  0  0  0  0  0  0  0  0
    7.7210   47.1390   53.9290 C   0  0  0  0  0  0  0  0  0  0  0  0
    4.8886   44.3832   53.2366 H   0  0  0  0  0  0  0  0  0  0  0  0
    1.4736   46.1188   57.6425 H   0  0  0  0  0  0  0  0  0  0  0  0
   -0.9611   45.8816   58.0944 H   0  0  0  0  0  0  0  0  0  0  0  0
   -2.4585   44.9291   56.3388 H   0  0  0  0  0  0  0  0  0  0  0  0
   -1.5054   44.2321   54.1485 H   0  0  0  0  0  0  0  0  0  0  0  0
    2.2830   44.6290   51.2470 H   0  0  0  0  0  0  0  0  0  0  0  0
    2.6751   42.1920   52.6779 H   0  0  0  0  0  0  0  0  0  0  0  0
    2.0703   42.4700   51.0048 H   0  0  0  0  0  0  0  0  0  0  0  0
    4.8001   41.8513   51.9921 H   0  0  0  0  0  0  0  0  0  0  0  0
    4.5113   43.9073   49.7681 H   0  0  0  0  0  0  0  0  0  0  0  0
    5.1729   44.1914   51.4336 H   0  0  0  0  0  0  0  0  0  0  0  0
    6.7463   43.6707   49.3232 H   0  0  0  0  0  0  0  0  0  0  0  0
    7.1063   43.1054   51.0249 H   0  0  0  0  0  0  0  0  0  0  0  0
    7.2951   41.4710   48.9323 H   0  0  0  0  0  0  0  0  0  0  0  0
    6.7012   40.9317   50.5572 H   0  0  0  0  0  0  0  0  0  0  0  0
    4.9622   41.7636   48.1982 H   0  0  0  0  0  0  0  0  0  0  0  0
    5.2826   40.0704   48.7715 H   0  0  0  0  0  0  0  0  0  0  0  0
    3.1062   41.4839   49.4976 H   0  0  0  0  0  0  0  0  0  0  0  0
    3.9420   40.2510   50.5617 H   0  0  0  0  0  0  0  0  0  0  0  0
    6.3005   46.0020   51.0165 H   0  0  0  0  0  0  0  0  0  0  0  0
    8.7144   45.9178   50.3575 H   0  0  0  0  0  0  0  0  0  0  0  0
    9.8502   47.3742   54.2639 H   0  0  0  0  0  0  0  0  0  0  0  0
    7.4400   47.4728   54.9388 H   0  0  0  0  0  0  0  0  0  0  0  0
  1  2  3  0
  2  3  1  0
  3  4  1  0
  4  5  2  0
  5  6  1  0
  6  7  2  0
  7  8  1  0
  8  9  2  0
  9 10  1  0
 10 11  2  0
 11 12  1  0
 12 13  2  0
 13 14  1  0
 14 15  1  0
 15 16  1  0
 16 17  1  0
 17 18  1  0
 18 19  1  0
 19 20  1  0
 20 21  1  0
  3 22  1  0
 22 23  2  0
 22 24  2  0
 22 25  1  0
 25 26  2  0
 26 27  1  0
 27 28  2  0
 28 29  1  0
 28 30  1  0
 30 31  2  0
 13  4  1  0
 21 16  1  0
 31 25  1  0
 11  6  1  0
  3 32  1  0
  7 33  1  0
  8 34  1  0
  9 35  1  0
 10 36  1  0
 14 37  1  0
 15 38  1  0
 15 39  1  0
 16 40  1  0
 17 41  1  0
 17 42  1  0
 18 43  1  0
 18 44  1  0
 19 45  1  0
 19 46  1  0
 20 47  1  0
 20 48  1  0
 21 49  1  0
 21 50  1  0
 26 51  1  0
 27 52  1  0
 30 53  1  0
 31 54  1  0
M  END
>  <meeko>  (18) 
{"is_sidechain": false}

>  <CID>  (18) 
Z107740192

>  <pose_index>  (18) 
1

>  <docking_score>  (18) 
-9.921

>  <num_viable_poses>  (18) 
6

>  <rmsd_pairwise_std>  (18) 
0.23034738609872116

>  <rmsd_to_best_std>  (18) 
0.2521884824733044

>  <MWT>  (18) 
438.52799999999974

>  <TPSA>  (18) 
95.74000000000001

>  <logP>  (18) 
4.799680000000004

>  <HBD>  (18) 
1

>  <HBA>  (18) 
6

>  <SMILES>  (18) 
[H]c1c([H])c(S(=O)(=O)C([H])(C#N)c2nc3c([H])c([H])c([H])c([H])c3nc2N([H])C([H])([H])C2([H])C([H])([H])C([H])([H])C([H])([H])C([H])([H])C2([H])[H])c([H])c([H])c1F

$$$$
Z1127203562_pose1
     RDKit          3D

 51 53  0  0  0  0  0  0  0  0999 V2000
    1.6900   45.6130   56.0920 C   0  0  0  0  0  0  0  0  0  0  0  0
    2.2390   44.6410   55.0450 C   0  0  0  0  0  0  0  0  0  0  0  0
    1.1110   43.9940   54.2370 C   0  0  0  0  0  0  0  0  0  0  0  0
    3.2730   45.2420   54.1760 N   0  0  0  0  0  0  0  0  0  0  0  0
    2.9460   45.3130   52.7440 C   0  0  0  0  0  0  0  0  0  0  0  0
    3.9750   44.5510   51.9210 C   0  0  0  0  0  0  0  0  0  0  0  0
    5.0180   45.1500   51.4410 N   0  0  0  0  0  0  0  0  0  0  0  0
    5.9280   44.3820   50.6940 C   0  0  0  0  0  0  0  0  0  0  0  0
    7.0570   45.0040   50.1590 C   0  0  0  0  0  0  0  0  0  0  0  0
    7.9850   44.2750   49.4090 C   0  0  0  0  0  0  0  0  0  0  0  0
    7.7910   42.9110   49.1860 C   0  0  0  0  0  0  0  0  0  0  0  0
    6.6690   42.2730   49.7130 C   0  0  0  0  0  0  0  0  0  0  0  0
    5.7480   43.0130   50.4630 C   0  0  0  0  0  0  0  0  0  0  0  0
    4.5510   42.3780   51.0380 C   0  0  0  0  0  0  0  0  0  0  0  0
    4.3130   41.1840   50.9000 O   0  0  0  0  0  0  0  0  0  0  0  0
    3.7280   43.2140   51.7460 N   0  0  0  0  0  0  0  0  0  0  0  0
    4.5590   45.4290   54.6730 C   0  0  0  0  0  0  0  0  0  0  0  0
    5.1530   44.6100   55.3650 O   0  0  0  0  0  0  0  0  0  0  0  0
    5.1520   46.6100   54.2820 N   0  0  0  0  0  0  0  0  0  0  0  0
    6.5270   46.8670   54.6850 C   0  0  0  0  0  0  0  0  0  0  0  0
    7.4970   46.6650   53.5270 C   0  0  0  0  0  0  0  0  0  0  0  0
    8.9670   46.8020   53.9220 C   0  0  0  0  0  0  0  0  0  0  0  0
    9.6540   47.0100   52.5830 C   0  0  0  0  0  0  0  0  0  0  0  0
    8.7130   47.9390   51.8250 C   0  0  0  0  0  0  0  0  0  0  0  0
    7.3210   47.7080   52.4160 C   0  0  0  0  0  0  0  0  0  0  0  0
    1.9074   45.2281   57.0993 H   0  0  0  0  0  0  0  0  0  0  0  0
    2.1660   46.5964   55.9646 H   0  0  0  0  0  0  0  0  0  0  0  0
    0.6020   45.7130   55.9646 H   0  0  0  0  0  0  0  0  0  0  0  0
    2.7502   43.8420   55.6020 H   0  0  0  0  0  0  0  0  0  0  0  0
    0.3661   43.5667   54.9244 H   0  0  0  0  0  0  0  0  0  0  0  0
    0.6314   44.7543   53.6030 H   0  0  0  0  0  0  0  0  0  0  0  0
    1.5251   43.1961   53.6030 H   0  0  0  0  0  0  0  0  0  0  0  0
    1.9520   44.8722   52.5779 H   0  0  0  0  0  0  0  0  0  0  0  0
    2.9518   46.3675   52.4308 H   0  0  0  0  0  0  0  0  0  0  0  0
    7.2185   46.0787   50.3291 H   0  0  0  0  0  0  0  0  0  0  0  0
    8.8706   44.7781   48.9935 H   0  0  0  0  0  0  0  0  0  0  0  0
    8.5224   42.3401   48.5952 H   0  0  0  0  0  0  0  0  0  0  0  0
    6.5092   41.1984   49.5409 H   0  0  0  0  0  0  0  0  0  0  0  0
    2.8710   42.8070   52.1030 H   0  0  0  0  0  0  0  0  0  0  0  0
    4.5410   47.3990   54.4370 H   0  0  0  0  0  0  0  0  0  0  0  0
    6.6068   47.9048   55.0409 H   0  0  0  0  0  0  0  0  0  0  0  0
    6.7905   46.1572   55.4830 H   0  0  0  0  0  0  0  0  0  0  0  0
    7.2586   45.6440   53.1942 H   0  0  0  0  0  0  0  0  0  0  0  0
    9.1208   47.6660   54.5853 H   0  0  0  0  0  0  0  0  0  0  0  0
    9.3517   45.9359   54.4804 H   0  0  0  0  0  0  0  0  0  0  0  0
   10.6402   47.4781   52.7183 H   0  0  0  0  0  0  0  0  0  0  0  0
    9.8360   46.0653   52.0497 H   0  0  0  0  0  0  0  0  0  0  0  0
    9.0175   48.9869   51.9638 H   0  0  0  0  0  0  0  0  0  0  0  0
    8.7298   47.7335   50.7445 H   0  0  0  0  0  0  0  0  0  0  0  0
    6.9228   48.6452   52.8321 H   0  0  0  0  0  0  0  0  0  0  0  0
    6.6118   47.3622   51.6495 H   0  0  0  0  0  0  0  0  0  0  0  0
  1  2  1  0
  2  3  1  0
  2  4  1  0
  4  5  1  0
  5  6  1  0
  6  7  2  0
  7  8  1  0
  8  9  2  0
  9 10  1  0
 10 11  2  0
 11 12  1  0
 12 13  2  0
 13 14  1  0
 14 15  2  0
 14 16  1  0
  4 17  1  0
 17 18  2  0
 17 19  1  0
 19 20  1  0
 20 21  1  0
 21 22  1  0
 22 23  1  0
 23 24  1  0
 24 25  1  0
 16  6  1  0
 25 21  1  0
 13  8  1  0
  1 26  1  0
  1 27  1  0
  1 28  1  0
  2 29  1  0
  3 30  1  0
  3 31  1  0
  3 32  1  0
  5 33  1  0
  5 34  1  0
  9 35  1  0
 10 36  1  0
 11 37  1  0
 12 38  1  0
 16 39  1  0
 19 40  1  0
 20 41  1  0
 20 42  1  0
 21 43  1  0
 22 44  1  0
 22 45  1  0
 23 46  1  0
 23 47  1  0
 24 48  1  0
 24 49  1  0
 25 50  1  0
 25 51  1  0
M  END
>  <meeko>  (19) 
{"is_sidechain": false}

>  <CID>  (19) 
Z1127203562

>  <pose_index>  (19) 
1

>  <docking_score>  (19) 
-9.076

>  <num_viable_poses>  (19) 
5

>  <rmsd_pairwise_std>  (19) 
0.17659181538242172

>  <rmsd_to_best_std>  (19) 
0.16877147693255878

>  <MWT>  (19) 
342.44299999999964

>  <TPSA>  (19) 
78.09

>  <logP>  (19) 
3.0333000000000014

>  <HBD>  (19) 
2

>  <HBA>  (19) 
3

>  <SMILES>  (19) 
[H]c1c([H])c([H])c2c(=O)n([H])c(C([H])([H])N(C(=O)N([H])C([H])([H])C3([H])C([H])([H])C([H])([H])C([H])([H])C3([H])[H])C([H])(C([H])([H])[H])C([H])([H])[H])nc2c1[H]

$$$$
Z1139476087_pose1
     RDKit          3D

 49 52  0  0  0  0  0  0  0  0999 V2000
    3.6110   46.0720   55.5680 C   0  0  0  0  0  0  0  0  0  0  0  0
    2.9100   45.5850   54.3550 C   0  0  0  0  0  0  0  0  0  0  0  0
    1.5400   45.6900   54.0550 C   0  0  0  0  0  0  0  0  0  0  0  0
    1.3900   45.1090   52.8150 C   0  0  0  0  0  0  0  0  0  0  0  0
    0.1650   44.9200   51.9950 C   0  0  0  0  0  0  0  0  0  0  0  0
    2.6470   44.7030   52.4440 N   0  0  0  0  0  0  0  0  0  0  0  0
    3.0350   44.0100   51.2320 C   0  0  0  0  0  0  0  0  0  0  0  0
    4.3860   43.2590   51.2510 C   0  0  0  0  0  0  0  0  0  0  0  0
    4.2810   41.8480   50.6440 C   0  0  0  0  0  0  0  0  0  0  0  0
    5.6490   41.1930   50.5320 C   0  0  0  0  0  0  0  0  0  0  0  0
    6.5610   41.9780   49.5930 C   0  0  0  0  0  0  0  0  0  0  0  0
    6.1540   43.4360   49.4110 C   0  0  0  0  0  0  0  0  0  0  0  0
    5.6320   43.9860   50.7080 N   0  0  0  0  0  4  0  0  0  0  0  0
    5.6120   45.5020   50.7310 C   0  0  0  0  0  0  0  0  0  0  0  0
    6.6650   46.0210   51.6520 C   0  0  0  0  0  0  0  0  0  0  0  0
    7.9650   45.9700   51.4200 N   0  0  0  0  0  0  0  0  0  0  0  0
    8.5500   46.5350   52.5330 C   0  0  0  0  0  0  0  0  0  0  0  0
    9.8890   46.7620   52.8720 C   0  0  0  0  0  0  0  0  0  0  0  0
   10.1310   47.3520   54.1150 C   0  0  0  0  0  0  0  0  0  0  0  0
    9.0570   47.6820   54.9410 C   0  0  0  0  0  0  0  0  0  0  0  0
    7.7490   47.4820   54.6500 N   0  0  0  0  0  0  0  0  0  0  0  0
    7.5820   46.9200   53.4460 C   0  0  0  0  0  0  0  0  0  0  0  0
    6.3890   46.5930   52.8690 N   0  0  0  0  0  0  0  0  0  0  0  0
    3.5840   44.9580   53.3800 N   0  0  0  0  0  0  0  0  0  0  0  0
    3.0877   45.7085   56.4647 H   0  0  0  0  0  0  0  0  0  0  0  0
    4.6450   45.6967   55.5695 H   0  0  0  0  0  0  0  0  0  0  0  0
    3.6201   47.1720   55.5695 H   0  0  0  0  0  0  0  0  0  0  0  0
    0.7541   46.1409   54.6788 H   0  0  0  0  0  0  0  0  0  0  0  0
   -0.7027   44.7861   52.6576 H   0  0  0  0  0  0  0  0  0  0  0  0
    0.0086   45.8046   51.3602 H   0  0  0  0  0  0  0  0  0  0  0  0
    0.2825   44.0294   51.3602 H   0  0  0  0  0  0  0  0  0  0  0  0
    2.2498   43.2736   51.0058 H   0  0  0  0  0  0  0  0  0  0  0  0
    3.1609   44.8024   50.4795 H   0  0  0  0  0  0  0  0  0  0  0  0
    4.5768   43.2005   52.3328 H   0  0  0  0  0  0  0  0  0  0  0  0
    3.6382   41.2282   51.2864 H   0  0  0  0  0  0  0  0  0  0  0  0
    3.8532   41.9347   49.6343 H   0  0  0  0  0  0  0  0  0  0  0  0
    6.1104   41.1526   51.5298 H   0  0  0  0  0  0  0  0  0  0  0  0
    5.5180   40.1798   50.1243 H   0  0  0  0  0  0  0  0  0  0  0  0
    7.5824   41.9520   50.0006 H   0  0  0  0  0  0  0  0  0  0  0  0
    6.4879   41.5007   48.6046 H   0  0  0  0  0  0  0  0  0  0  0  0
    7.0286   44.0219   49.0919 H   0  0  0  0  0  0  0  0  0  0  0  0
    5.3654   43.4996   48.6467 H   0  0  0  0  0  0  0  0  0  0  0  0
    6.3620   43.7870   51.4140 H   0  0  0  0  0  0  0  0  0  0  0  0
    5.7984   45.8826   49.7159 H   0  0  0  0  0  0  0  0  0  0  0  0
    4.6277   45.8410   51.0864 H   0  0  0  0  0  0  0  0  0  0  0  0
   10.7103   46.4892   52.1930 H   0  0  0  0  0  0  0  0  0  0  0  0
   11.1621   47.5549   54.4401 H   0  0  0  0  0  0  0  0  0  0  0  0
    9.2918   48.1440   55.9113 H   0  0  0  0  0  0  0  0  0  0  0  0
    5.4850   46.7590   53.2980 H   0  0  0  0  0  0  0  0  0  0  0  0
  1  2  1  0
  2  3  1  0
  3  4  2  0
  4  5  1  0
  4  6  1  0
  6  7  1  0
  7  8  1  0
  8  9  1  0
  9 10  1  0
 10 11  1  0
 11 12  1  0
 12 13  1  0
 13 14  1  0
 14 15  1  0
 15 16  2  0
 16 17  1  0
 17 18  2  0
 18 19  1  0
 19 20  2  0
 20 21  1  0
 21 22  2  0
 22 23  1  0
  6 24  1  0
 24  2  2  0
 13  8  1  0
 23 15  1  0
 22 17  1  0
  1 25  1  0
  1 26  1  0
  1 27  1  0
  3 28  1  0
  5 29  1  0
  5 30  1  0
  5 31  1  0
  7 32  1  0
  7 33  1  0
  8 34  1  0
  9 35  1  0
  9 36  1  0
 10 37  1  0
 10 38  1  0
 11 39  1  0
 11 40  1  0
 12 41  1  0
 12 42  1  0
 13 43  1  0
 14 44  1  0
 14 45  1  0
 18 46  1  0
 19 47  1  0
 20 48  1  0
 23 49  1  0
M  CHG  1  13   1
M  END
>  <meeko>  (20) 
{"is_sidechain": false}

>  <CID>  (20) 
Z1139476087

>  <pose_index>  (20) 
1

>  <docking_score>  (20) 
-8.673

>  <num_viable_poses>  (20) 
6

>  <rmsd_pairwise_std>  (20) 
0.3778688008947393

>  <rmsd_to_best_std>  (20) 
0.39090742382902227

>  <MWT>  (20) 
325.43999999999954

>  <TPSA>  (20) 
63.830000000000005

>  <logP>  (20) 
1.4088399999999994

>  <HBD>  (20) 
2

>  <HBA>  (20) 
4

>  <SMILES>  (20) 
[H]c1nc2c(nc(C([H])([H])[N+]3([H])C([H])([H])C([H])([H])C([H])([H])C([H])([H])C3([H])C([H])([H])n3nc(C([H])([H])[H])c([H])c3C([H])([H])[H])n2[H])c([H])c1[H]

$$$$
Z1192499493_pose1
     RDKit          3D

 39 41  0  0  0  0  0  0  0  0999 V2000
    3.6450   46.8320   52.5640 O   0  0  0  0  0  0  0  0  0  0  0  0
    4.5270   46.3750   53.2860 C   0  0  0  0  0  0  0  0  0  0  0  0
    5.1480   47.2230   54.4030 C   0  0  0  0  0  0  0  0  0  0  0  0
    6.3190   46.6080   54.9310 O   0  0  0  0  0  0  0  0  0  0  0  0
    7.5490   47.2260   54.5450 C   0  0  0  0  0  0  0  0  0  0  0  0
    8.4690   46.3940   53.6380 C   0  0  0  0  0  0  0  0  0  0  0  0
    9.8670   46.9480   53.4070 C   0  0  0  0  0  0  0  0  0  0  0  0
   10.2460   46.2770   52.1100 C   0  0  0  0  0  0  0  0  0  0  0  0
    8.9310   46.2670   51.3580 C   0  0  0  0  0  0  0  0  0  0  0  0
    7.8900   46.1770   52.3390 O   0  0  0  0  0  0  0  0  0  0  0  0
    5.0900   45.1150   53.2160 N   0  0  0  0  0  0  0  0  0  0  0  0
    4.7910   44.0710   52.3270 C   0  0  0  0  0  0  0  0  0  0  0  0
    3.6720   43.2410   52.4470 C   0  0  0  0  0  0  0  0  0  0  0  0
    3.4390   42.2170   51.5180 C   0  0  0  0  0  0  0  0  0  0  0  0
    4.3150   42.0060   50.4560 C   0  0  0  0  0  0  0  0  0  0  0  0
    4.0480   40.9700   49.5430 N   0  0  0  0  0  0  0  0  0  0  0  0
    4.8800   40.8050   48.5730 C   0  0  0  0  0  0  0  0  0  0  0  0
    5.9950   41.5680   48.3800 N   0  0  0  0  0  0  0  0  0  0  0  0
    6.3440   42.5990   49.2130 C   0  0  0  0  0  0  0  0  0  0  0  0
    7.3510   43.2730   49.0310 O   0  0  0  0  0  0  0  0  0  0  0  0
    5.4290   42.8400   50.3430 C   0  0  0  0  0  0  0  0  0  0  0  0
    5.6740   43.8660   51.2630 C   0  0  0  0  0  0  0  0  0  0  0  0
    5.4139   48.2103   53.9973 H   0  0  0  0  0  0  0  0  0  0  0  0
    4.4117   47.3204   55.2144 H   0  0  0  0  0  0  0  0  0  0  0  0
    7.3046   48.1569   54.0123 H   0  0  0  0  0  0  0  0  0  0  0  0
    8.1108   47.3740   55.4791 H   0  0  0  0  0  0  0  0  0  0  0  0
    8.5707   45.4612   54.2121 H   0  0  0  0  0  0  0  0  0  0  0  0
    9.8533   48.0431   53.3038 H   0  0  0  0  0  0  0  0  0  0  0  0
   10.5677   46.7557   54.2329 H   0  0  0  0  0  0  0  0  0  0  0  0
   11.0098   46.8558   51.5699 H   0  0  0  0  0  0  0  0  0  0  0  0
   10.6863   45.2777   52.2423 H   0  0  0  0  0  0  0  0  0  0  0  0
    8.8219   47.1933   50.7748 H   0  0  0  0  0  0  0  0  0  0  0  0
    8.8852   45.4205   50.6571 H   0  0  0  0  0  0  0  0  0  0  0  0
    5.8070   44.9510   53.9220 H   0  0  0  0  0  0  0  0  0  0  0  0
    2.9678   43.3929   53.2782 H   0  0  0  0  0  0  0  0  0  0  0  0
    2.5542   41.5729   51.6292 H   0  0  0  0  0  0  0  0  0  0  0  0
    4.6786   39.9971   47.8542 H   0  0  0  0  0  0  0  0  0  0  0  0
    6.6140   41.3930   47.6010 H   0  0  0  0  0  0  0  0  0  0  0  0
    6.5590   44.5092   51.1490 H   0  0  0  0  0  0  0  0  0  0  0  0
  1  2  2  0
  2  3  1  0
  3  4  1  0
  4  5  1  0
  5  6  1  0
  6  7  1  0
  7  8  1  0
  8  9  1  0
  9 10  1  0
  2 11  1  0
 11 12  1  0
 12 13  2  0
 13 14  1  0
 14 15  2  0
 15 16  1  0
 16 17  2  0
 17 18  1  0
 18 19  1  0
 19 20  2  0
 19 21  1  0
 21 22  2  0
 10  6  1  0
 22 12  1  0
 21 15  1  0
  3 23  1  0
  3 24  1  0
  5 25  1  0
  5 26  1  0
  6 27  1  0
  7 28  1  0
  7 29  1  0
  8 30  1  0
  8 31  1  0
  9 32  1  0
  9 33  1  0
 11 34  1  0
 13 35  1  0
 14 36  1  0
 17 37  1  0
 18 38  1  0
 22 39  1  0
M  END
>  <meeko>  (21) 
{"is_sidechain": false}

>  <CID>  (21) 
Z1192499493

>  <pose_index>  (21) 
1

>  <docking_score>  (21) 
-8.103

>  <num_viable_poses>  (21) 
7

>  <rmsd_pairwise_std>  (21) 
0.3716132714797812

>  <rmsd_to_best_std>  (21) 
0.40013332382485384

>  <MWT>  (21) 
303.3179999999997

>  <TPSA>  (21) 
93.31

>  <logP>  (21) 
1.0572

>  <HBD>  (21) 
2

>  <HBA>  (21) 
5

>  <SMILES>  (21) 
[H]c1c(N([H])C(=O)C([H])([H])OC([H])([H])C2([H])OC([H])([H])C([H])([H])C2([H])[H])c([H])c2c(=O)n([H])c([H])nc2c1[H]

$$$$
Z1198960055_pose2
     RDKit          3D

 42 45  0  0  0  0  0  0  0  0999 V2000
   -1.3345   43.9057   53.8227 O   0  0  0  0  0  0  0  0  0  0  0  0
   -0.2245   44.4094   53.8266 C   0  0  0  0  0  0  0  0  0  0  0  0
    1.0008   43.9269   53.0403 C   0  0  0  0  0  0  0  0  0  0  0  0
    2.0467   44.9209   53.4446 C   0  0  0  0  0  0  0  0  0  0  0  0
    3.3758   45.0173   53.0689 C   0  0  0  0  0  0  0  0  0  0  0  0
    4.1516   46.0607   53.6018 C   0  0  0  0  0  0  0  0  0  0  0  0
    5.4987   46.1132   53.1964 N   0  0  0  0  0  0  0  0  0  0  0  0
    6.1866   47.1707   52.6359 C   0  0  0  0  0  0  0  0  0  0  0  0
    5.7109   48.2677   52.3621 O   0  0  0  0  0  0  0  0  0  0  0  0
    7.6409   46.9296   52.3312 C   0  0  0  0  0  0  0  0  0  0  0  0
    8.5803   47.6162   53.1195 C   0  0  0  0  0  0  0  0  0  0  0  0
    9.9504   47.4553   52.9098 C   0  0  0  0  0  0  0  0  0  0  0  0
   10.4033   46.6091   51.9036 C   0  0  0  0  0  0  0  0  0  0  0  0
    9.4871   45.9126   51.1144 C   0  0  0  0  0  0  0  0  0  0  0  0
    8.1110   46.0514   51.3379 C   0  0  0  0  0  0  0  0  0  0  0  0
    7.2141   45.3800   50.5432 O   0  0  0  0  0  0  0  0  0  0  0  0
    7.7089   44.1211   50.0718 C   0  0  0  0  0  0  0  0  0  0  0  0
    6.5332   43.2065   49.9055 C   0  0  0  0  0  0  0  0  0  0  0  0
    5.5960   42.9470   51.0566 C   0  0  0  0  0  0  0  0  0  0  0  0
    6.5113   41.8544   50.5717 C   0  0  0  0  0  0  0  0  0  0  0  0
    3.5669   46.9773   54.4990 C   0  0  0  0  0  0  0  0  0  0  0  0
    2.2209   46.8711   54.8734 C   0  0  0  0  0  0  0  0  0  0  0  0
    1.4923   45.8383   54.3314 C   0  0  0  0  0  0  0  0  0  0  0  0
    0.1593   45.5324   54.5502 N   0  0  0  0  0  0  0  0  0  0  0  0
    1.2863   42.9058   53.3334 H   0  0  0  0  0  0  0  0  0  0  0  0
    0.8366   43.8755   51.9538 H   0  0  0  0  0  0  0  0  0  0  0  0
    3.8152   44.2923   52.3679 H   0  0  0  0  0  0  0  0  0  0  0  0
    6.0416   45.2666   53.3457 H   0  0  0  0  0  0  0  0  0  0  0  0
    8.2300   48.2911   53.9143 H   0  0  0  0  0  0  0  0  0  0  0  0
   10.6713   47.9971   53.5397 H   0  0  0  0  0  0  0  0  0  0  0  0
   11.4828   46.4889   51.7298 H   0  0  0  0  0  0  0  0  0  0  0  0
    9.8473   45.2511   50.3127 H   0  0  0  0  0  0  0  0  0  0  0  0
    8.2187   44.2560   49.1065 H   0  0  0  0  0  0  0  0  0  0  0  0
    8.4304   43.6974   50.7858 H   0  0  0  0  0  0  0  0  0  0  0  0
    6.4171   43.5665   48.8726 H   0  0  0  0  0  0  0  0  0  0  0  0
    5.7769   43.4238   52.0313 H   0  0  0  0  0  0  0  0  0  0  0  0
    4.5110   43.0405   51.2122 H   0  0  0  0  0  0  0  0  0  0  0  0
    7.3610   41.5332   51.1920 H   0  0  0  0  0  0  0  0  0  0  0  0
    6.3721   40.8194   50.2263 H   0  0  0  0  0  0  0  0  0  0  0  0
    4.1793   47.7917   54.9133 H   0  0  0  0  0  0  0  0  0  0  0  0
    1.7647   47.5862   55.5737 H   0  0  0  0  0  0  0  0  0  0  0  0
   -0.4718   46.0385   55.1520 H   0  0  0  0  0  0  0  0  0  0  0  0
  1  2  2  0
  2  3  1  0
  3  4  1  0
  4  5  2  0
  5  6  1  0
  6  7  1  0
  7  8  1  0
  8  9  2  0
  8 10  1  0
 10 11  2  0
 11 12  1  0
 12 13  2  0
 13 14  1  0
 14 15  2  0
 15 16  1  0
 16 17  1  0
 17 18  1  0
 18 19  1  0
 19 20  1  0
  6 21  2  0
 21 22  1  0
 22 23  2  0
 23 24  1  0
 24  2  1  0
 23  4  1  0
 15 10  1  0
 20 18  1  0
  3 25  1  0
  3 26  1  0
  5 27  1  0
  7 28  1  0
 11 29  1  0
 12 30  1  0
 13 31  1  0
 14 32  1  0
 17 33  1  0
 17 34  1  0
 18 35  1  0
 19 36  1  0
 19 37  1  0
 20 38  1  0
 20 39  1  0
 21 40  1  0
 22 41  1  0
 24 42  1  0
M  END
>  <meeko>  (22) 
{"is_sidechain": false}

>  <CID>  (22) 
Z1198960055

>  <pose_index>  (22) 
2

>  <docking_score>  (22) 
-9.188

>  <num_viable_poses>  (22) 
6

>  <rmsd_pairwise_std>  (22) 
0.3007644612883721

>  <rmsd_to_best_std>  (22) 
0.37506886011655094

>  <MWT>  (22) 
322.3639999999997

>  <TPSA>  (22) 
67.43

>  <logP>  (22) 
3.2223000000000015

>  <HBD>  (22) 
2

>  <HBA>  (22) 
3

>  <SMILES>  (22) 
[H]c1c([H])c([H])c(C(=O)N([H])c2c([H])c([H])c3c(c2[H])C([H])([H])C(=O)N3[H])c(OC([H])([H])C2([H])C([H])([H])C2([H])[H])c1[H]

$$$$
Z1212723352_pose1
     RDKit          3D

 33 36  0  0  0  0  0  0  0  0999 V2000
    9.7590   47.0090   51.8270 Cl  0  0  0  0  0  0  0  0  0  0  0  0
    8.1230   46.5110   51.6420 C   0  0  0  0  0  0  0  0  0  0  0  0
    7.7800   45.6240   50.6250 C   0  0  0  0  0  0  0  0  0  0  0  0
    6.4500   45.2170   50.4750 C   0  0  0  0  0  0  0  0  0  0  0  0
    5.4530   45.6960   51.3410 C   0  0  0  0  0  0  0  0  0  0  0  0
    4.0620   45.2790   51.1950 C   0  0  0  0  0  0  0  0  0  0  0  0
    3.0740   46.0890   50.7780 N   0  0  0  0  0  0  0  0  0  0  0  0
    1.9440   45.2780   50.8030 O   0  0  0  0  0  0  0  0  0  0  0  0
    2.3560   44.0500   51.2340 C   0  0  0  0  0  0  0  0  0  0  0  0
    1.3050   42.9930   51.3260 C   0  0  0  0  0  0  0  0  0  0  0  0
    1.1330   42.3280   52.6260 N   0  0  0  0  0  0  0  0  0  0  0  0
    0.4770   43.0870   53.5940 C   0  0  0  0  0  0  0  0  0  0  0  0
   -0.8560   42.9950   53.7750 N   0  0  0  0  0  0  0  0  0  0  0  0
   -1.4420   43.7460   54.7340 C   0  0  0  0  0  0  0  0  0  0  0  0
   -0.8650   44.6160   55.5680 N   0  0  0  0  0  0  0  0  0  0  0  0
    0.4590   44.7160   55.3660 C   0  0  0  0  0  0  0  0  0  0  0  0
    1.3060   45.5400   56.0580 N   0  0  0  0  0  0  0  0  0  0  0  0
    2.4900   45.3340   55.5260 C   0  0  0  0  0  0  0  0  0  0  0  0
    2.4400   44.4060   54.5220 N   0  0  0  0  0  0  0  0  0  0  0  0
    1.1420   43.9860   54.4100 C   0  0  0  0  0  0  0  0  0  0  0  0
    3.6470   43.9920   51.4680 N   0  0  0  0  0  0  0  0  0  0  0  0
    5.8190   46.5910   52.3600 C   0  0  0  0  0  0  0  0  0  0  0  0
    7.1490   46.9970   52.5100 C   0  0  0  0  0  0  0  0  0  0  0  0
    8.5532   45.2441   49.9410 H   0  0  0  0  0  0  0  0  0  0  0  0
    6.1824   44.5152   49.6713 H   0  0  0  0  0  0  0  0  0  0  0  0
    0.3437   43.4583   51.0625 H   0  0  0  0  0  0  0  0  0  0  0  0
    1.6412   42.1986   50.6434 H   0  0  0  0  0  0  0  0  0  0  0  0
    0.7380   41.3980   52.5430 H   0  0  0  0  0  0  0  0  0  0  0  0
   -2.5301   43.6259   54.8413 H   0  0  0  0  0  0  0  0  0  0  0  0
    3.4090   45.8453   55.8486 H   0  0  0  0  0  0  0  0  0  0  0  0
    3.2160   44.1060   53.9520 H   0  0  0  0  0  0  0  0  0  0  0  0
    5.0515   46.9766   53.0472 H   0  0  0  0  0  0  0  0  0  0  0  0
    7.4246   47.6982   53.3114 H   0  0  0  0  0  0  0  0  0  0  0  0
  1  2  1  0
  2  3  2  0
  3  4  1  0
  4  5  2  0
  5  6  1  0
  6  7  2  0
  7  8  1  0
  8  9  1  0
  9 10  1  0
 10 11  1  0
 11 12  1  0
 12 13  2  0
 13 14  1  0
 14 15  2  0
 15 16  1  0
 16 17  1  0
 17 18  2  0
 18 19  1  0
 19 20  1  0
  9 21  2  0
  5 22  1  0
 22 23  2  0
 23  2  1  0
 21  6  1  0
 20 12  1  0
 20 16  2  0
  3 24  1  0
  4 25  1  0
 10 26  1  0
 10 27  1  0
 11 28  1  0
 14 29  1  0
 18 30  1  0
 19 31  1  0
 22 32  1  0
 23 33  1  0
M  END
>  <meeko>  (23) 
{"is_sidechain": false}

>  <CID>  (23) 
Z1212723352

>  <pose_index>  (23) 
1

>  <docking_score>  (23) 
-8.597

>  <num_viable_poses>  (23) 
7

>  <rmsd_pairwise_std>  (23) 
0.5137189679867009

>  <rmsd_to_best_std>  (23) 
0.6645924273090233

>  <MWT>  (23) 
327.73499999999984

>  <TPSA>  (23) 
105.41000000000001

>  <logP>  (23) 
2.668399999999999

>  <HBD>  (23) 
2

>  <HBA>  (23) 
7

>  <SMILES>  (23) 
[H]c1nc(N([H])C([H])([H])c2nc(-c3c([H])c([H])c(Cl)c([H])c3[H])no2)c2c(n1)nc([H])n2[H]

$$$$
Z1272453975_pose3
     RDKit          3D

 42 46  0  0  0  0  0  0  0  0999 V2000
    0.0637   42.9567   54.7602 C   0  0  0  0  0  0  0  0  0  0  0  0
    0.4680   42.7664   53.4896 N   0  0  0  0  0  0  0  0  0  0  0  0
    1.4222   43.5775   52.9665 C   0  0  0  0  0  0  0  0  0  0  0  0
    1.8912   43.4322   51.6521 N   0  0  0  0  0  0  0  0  0  0  0  0
    3.1504   43.6029   51.0596 C   0  0  0  0  0  0  0  0  0  0  0  0
    4.1442   42.6275   51.0366 C   0  0  0  0  0  0  0  0  0  0  0  0
    5.3817   42.8728   50.4306 C   0  0  0  0  0  0  0  0  0  0  0  0
    5.6608   44.1027   49.8362 C   0  0  0  0  0  0  0  0  0  0  0  0
    6.9042   44.2013   49.2885 O   0  0  0  0  0  0  0  0  0  0  0  0
    8.0421   43.8546   50.0930 C   0  0  0  0  0  0  0  0  0  0  0  0
    8.2292   44.7431   51.2760 C   0  0  0  0  0  0  0  0  0  0  0  0
    8.8255   45.9420   51.1957 N   0  0  0  0  0  0  0  0  0  0  0  0
    8.7807   46.4082   52.5098 O   0  0  0  0  0  0  0  0  0  0  0  0
    8.1723   45.4361   53.2506 C   0  0  0  0  0  0  0  0  0  0  0  0
    7.9082   45.5579   54.7774 C   0  0  0  0  0  0  0  0  0  0  0  0
    8.0836   46.8904   55.4514 C   0  0  0  0  0  0  0  0  0  0  0  0
    6.7082   46.3322   55.2543 C   0  0  0  0  0  0  0  0  0  0  0  0
    7.8387   44.3810   52.5442 N   0  0  0  0  0  0  0  0  0  0  0  0
    4.6783   45.0852   49.8424 C   0  0  0  0  0  0  0  0  0  0  0  0
    3.4410   44.8335   50.4487 C   0  0  0  0  0  0  0  0  0  0  0  0
    1.9378   44.5866   53.8066 C   0  0  0  0  0  0  0  0  0  0  0  0
    2.9071   45.6267   53.7002 C   0  0  0  0  0  0  0  0  0  0  0  0
    2.9528   46.2877   54.9096 C   0  0  0  0  0  0  0  0  0  0  0  0
    2.0497   45.6880   55.7465 N   0  0  0  0  0  0  0  0  0  0  0  0
    1.4272   44.6622   55.0933 C   0  0  0  0  0  0  0  0  0  0  0  0
    0.4895   43.8782   55.6382 N   0  0  0  0  0  0  0  0  0  0  0  0
   -0.7143   42.2697   55.1246 H   0  0  0  0  0  0  0  0  0  0  0  0
    1.1634   43.1591   51.0071 H   0  0  0  0  0  0  0  0  0  0  0  0
    3.9536   41.6492   51.5020 H   0  0  0  0  0  0  0  0  0  0  0  0
    6.1467   42.0824   50.4231 H   0  0  0  0  0  0  0  0  0  0  0  0
    7.9140   42.8221   50.4501 H   0  0  0  0  0  0  0  0  0  0  0  0
    8.9332   43.9700   49.4585 H   0  0  0  0  0  0  0  0  0  0  0  0
    8.2998   44.5435   54.9441 H   0  0  0  0  0  0  0  0  0  0  0  0
    8.5158   46.9424   56.4616 H   0  0  0  0  0  0  0  0  0  0  0  0
    8.5837   47.8340   55.1878 H   0  0  0  0  0  0  0  0  0  0  0  0
    6.1311   45.9740   56.1195 H   0  0  0  0  0  0  0  0  0  0  0  0
    5.7815   46.6958   54.7862 H   0  0  0  0  0  0  0  0  0  0  0  0
    4.8722   46.0602   49.3715 H   0  0  0  0  0  0  0  0  0  0  0  0
    2.6747   45.6226   50.4462 H   0  0  0  0  0  0  0  0  0  0  0  0
    3.5113   45.8605   52.8112 H   0  0  0  0  0  0  0  0  0  0  0  0
    3.5986   47.1429   55.1575 H   0  0  0  0  0  0  0  0  0  0  0  0
    1.8540   45.9447   56.7038 H   0  0  0  0  0  0  0  0  0  0  0  0
  1  2  2  0
  2  3  1  0
  3  4  1  0
  4  5  1  0
  5  6  2  0
  6  7  1  0
  7  8  2  0
  8  9  1  0
  9 10  1  0
 10 11  1  0
 11 12  2  0
 12 13  1  0
 13 14  1  0
 14 15  1  0
 15 16  1  0
 16 17  1  0
 14 18  2  0
  8 19  1  0
 19 20  2  0
  3 21  2  0
 21 22  1  0
 22 23  2  0
 23 24  1  0
 24 25  1  0
 25 26  2  0
 26  1  1  0
 20  5  1  0
 25 21  1  0
 18 11  1  0
 17 15  1  0
  1 27  1  0
  4 28  1  0
  6 29  1  0
  7 30  1  0
 10 31  1  0
 10 32  1  0
 15 33  1  0
 16 34  1  0
 16 35  1  0
 17 36  1  0
 17 37  1  0
 19 38  1  0
 20 39  1  0
 22 40  1  0
 23 41  1  0
 24 42  1  0
M  END
>  <meeko>  (24) 
{"is_sidechain": false}

>  <CID>  (24) 
Z1272453975

>  <pose_index>  (24) 
3

>  <docking_score>  (24) 
-8.775

>  <num_viable_poses>  (24) 
5

>  <rmsd_pairwise_std>  (24) 
0.31227127534686644

>  <rmsd_to_best_std>  (24) 
0.38304842790655125

>  <MWT>  (24) 
348.36599999999976

>  <TPSA>  (24) 
101.75000000000001

>  <logP>  (24) 
3.5409000000000015

>  <HBD>  (24) 
2

>  <HBA>  (24) 
7

>  <SMILES>  (24) 
[H]c1nc(N([H])c2c([H])c([H])c(OC([H])([H])c3noc(C4([H])C([H])([H])C4([H])[H])n3)c([H])c2[H])c2c([H])c([H])n([H])c2n1

$$$$
Z1274688759_pose1
     RDKit          3D

 53 56  0  0  0  0  0  0  0  0999 V2000
    0.6470   42.2180   53.7600 C   0  0  0  0  0  0  0  0  0  0  0  0
    1.8950   42.9850   53.4050 N   0  0  0  0  0  4  0  0  0  0  0  0
    1.9880   44.3560   54.0380 C   0  0  0  0  0  0  0  0  0  0  0  0
    0.9470   45.2930   53.4120 C   0  0  0  0  0  0  0  0  0  0  0  0
    0.9250   45.3230   51.8850 C   0  0  0  0  0  0  0  0  0  0  0  0
    1.1500   43.9610   51.2350 C   0  0  0  0  0  0  0  0  0  0  0  0
    2.1840   43.0640   51.9230 C   0  0  0  0  0  0  0  0  0  0  0  0
    3.6440   43.5020   51.7540 C   0  0  0  0  0  0  0  0  0  0  0  0
    4.0010   44.7950   52.4930 C   0  0  0  0  0  0  0  0  0  0  0  0
    5.4410   45.0010   52.4980 N   0  0  0  0  0  0  0  0  0  0  0  0
    5.9930   46.2630   52.6020 C   0  0  0  0  0  0  0  0  0  0  0  0
    5.2810   47.2570   52.7070 O   0  0  0  0  0  0  0  0  0  0  0  0
    7.4890   46.3820   52.5800 C   0  0  0  0  0  0  0  0  0  0  0  0
    8.0840   46.8250   53.7770 C   0  0  0  0  0  0  0  0  0  0  0  0
    9.4640   46.9840   53.8770 C   0  0  0  0  0  0  0  0  0  0  0  0
   10.2670   46.7070   52.7790 C   0  0  0  0  0  0  0  0  0  0  0  0
    9.6940   46.2630   51.5820 C   0  0  0  0  0  0  0  0  0  0  0  0
    8.3080   46.0830   51.4680 C   0  0  0  0  0  0  0  0  0  0  0  0
    7.6950   45.6570   50.3160 O   0  0  0  0  0  0  0  0  0  0  0  0
    7.9800   44.3480   49.8070 C   0  0  0  0  0  0  0  0  0  0  0  0
    6.7210   43.5430   49.6940 C   0  0  0  0  0  0  0  0  0  0  0  0
    6.5110   42.6490   48.4970 C   0  0  0  0  0  0  0  0  0  0  0  0
    6.7250   42.0430   49.8550 C   0  0  0  0  0  0  0  0  0  0  0  0
    3.4410   44.8210   53.9220 C   0  0  0  0  0  0  0  0  0  0  0  0
    0.5515   42.1593   54.8543 H   0  0  0  0  0  0  0  0  0  0  0  0
   -0.2309   42.7326   53.3424 H   0  0  0  0  0  0  0  0  0  0  0  0
    0.7096   41.2023   53.3424 H   0  0  0  0  0  0  0  0  0  0  0  0
    2.6510   42.4240   53.8240 H   0  0  0  0  0  0  0  0  0  0  0  0
    1.7391   44.3459   55.1094 H   0  0  0  0  0  0  0  0  0  0  0  0
   -0.0473   44.9756   53.7593 H   0  0  0  0  0  0  0  0  0  0  0  0
    1.2239   46.3088   53.7306 H   0  0  0  0  0  0  0  0  0  0  0  0
   -0.0546   45.7037   51.5604 H   0  0  0  0  0  0  0  0  0  0  0  0
    1.7566   45.9691   51.5670 H   0  0  0  0  0  0  0  0  0  0  0  0
    0.1888   43.4261   51.2278 H   0  0  0  0  0  0  0  0  0  0  0  0
    1.5502   44.1680   50.2315 H   0  0  0  0  0  0  0  0  0  0  0  0
    2.0818   42.0899   51.4223 H   0  0  0  0  0  0  0  0  0  0  0  0
    4.2916   42.6978   52.1334 H   0  0  0  0  0  0  0  0  0  0  0  0
    3.7929   43.6991   50.6821 H   0  0  0  0  0  0  0  0  0  0  0  0
    3.5271   45.6239   51.9468 H   0  0  0  0  0  0  0  0  0  0  0  0
    6.0920   44.2220   52.4300 H   0  0  0  0  0  0  0  0  0  0  0  0
    7.4488   47.0490   54.6467 H   0  0  0  0  0  0  0  0  0  0  0  0
    9.9148   47.3269   54.8200 H   0  0  0  0  0  0  0  0  0  0  0  0
   11.3570   46.8369   52.8501 H   0  0  0  0  0  0  0  0  0  0  0  0
   10.3406   46.0520   50.7175 H   0  0  0  0  0  0  0  0  0  0  0  0
    8.4420   44.4389   48.8129 H   0  0  0  0  0  0  0  0  0  0  0  0
    8.6667   43.8389   50.4993 H   0  0  0  0  0  0  0  0  0  0  0  0
    6.1697   44.3656   50.1730 H   0  0  0  0  0  0  0  0  0  0  0  0
    5.5215   42.5928   48.0198 H   0  0  0  0  0  0  0  0  0  0  0  0
    6.9920   42.5415   47.5136 H   0  0  0  0  0  0  0  0  0  0  0  0
    5.8921   41.5434   50.3714 H   0  0  0  0  0  0  0  0  0  0  0  0
    7.4273   41.3086   50.2762 H   0  0  0  0  0  0  0  0  0  0  0  0
    4.0636   44.1648   54.5479 H   0  0  0  0  0  0  0  0  0  0  0  0
    3.4626   45.8709   54.2495 H   0  0  0  0  0  0  0  0  0  0  0  0
  1  2  1  0
  2  3  1  0
  3  4  1  0
  4  5  1  0
  5  6  1  0
  6  7  1  0
  7  8  1  0
  8  9  1  0
  9 10  1  0
 10 11  1  0
 11 12  2  0
 11 13  1  0
 13 14  2  0
 14 15  1  0
 15 16  2  0
 16 17  1  0
 17 18  2  0
 18 19  1  0
 19 20  1  0
 20 21  1  0
 21 22  1  0
 22 23  1  0
  9 24  1  0
  7  2  1  0
 18 13  1  0
 23 21  1  0
 24  3  1  0
  1 25  1  0
  1 26  1  0
  1 27  1  0
  2 28  1  0
  3 29  1  0
  4 30  1  0
  4 31  1  0
  5 32  1  0
  5 33  1  0
  6 34  1  0
  6 35  1  0
  7 36  1  0
  8 37  1  0
  8 38  1  0
  9 39  1  0
 10 40  1  0
 14 41  1  0
 15 42  1  0
 16 43  1  0
 17 44  1  0
 20 45  1  0
 20 46  1  0
 21 47  1  0
 22 48  1  0
 22 49  1  0
 23 50  1  0
 23 51  1  0
 24 52  1  0
 24 53  1  0
M  CHG  1   2   1
M  END
>  <meeko>  (25) 
{"is_sidechain": false}

>  <CID>  (25) 
Z1274688759

>  <pose_index>  (25) 
1

>  <docking_score>  (25) 
-9.042

>  <num_viable_poses>  (25) 
5

>  <rmsd_pairwise_std>  (25) 
0.4500421835265002

>  <rmsd_to_best_std>  (25) 
0.4002649804771434

>  <MWT>  (25) 
329.4639999999995

>  <TPSA>  (25) 
42.769999999999996

>  <logP>  (25) 
1.8034000000000001

>  <HBD>  (25) 
2

>  <HBA>  (25) 
2

>  <SMILES>  (25) 
[H]c1c([H])c([H])c(C(=O)N([H])C2([H])C([H])([H])C3([H])C([H])([H])C([H])([H])C([H])([H])C([H])(C2([H])[H])[N+]3([H])C([H])([H])[H])c(OC([H])([H])C2([H])C([H])([H])C2([H])[H])c1[H]

$$$$
Z1381816014_pose1
     RDKit          3D

 46 48  0  0  0  0  0  0  0  0999 V2000
    3.2700   47.1800   51.7300 O   0  0  0  0  0  0  0  0  0  0  0  0
    3.7010   46.4480   52.6170 C   0  0  0  0  0  0  0  0  0  0  0  0
    4.9800   45.9170   52.6040 N   0  0  0  0  0  0  0  0  0  0  0  0
    6.0030   46.3430   51.6590 C   0  0  0  0  0  0  0  0  0  0  0  0
    7.2190   46.9530   52.3910 C   0  0  0  0  0  0  0  0  0  0  0  0
    7.3110   46.7090   53.8930 C   0  0  0  0  0  0  0  0  0  0  0  0
    6.3260   47.4550   54.5970 O   0  0  0  0  0  0  0  0  0  0  0  0
    6.2820   45.2410   50.5990 C   0  0  0  0  0  0  0  0  0  0  0  0
    7.7780   44.9410   50.4290 C   0  0  0  0  0  0  0  0  0  0  0  0
    8.0520   44.0560   49.2090 C   0  0  0  0  0  0  0  0  0  0  0  0
    6.9280   43.0660   48.9030 C   0  0  0  0  0  0  0  0  0  0  0  0
    6.1320   42.7100   50.1490 C   0  0  0  0  0  0  0  0  0  0  0  0
    5.4640   43.9410   50.7670 C   0  0  0  0  0  0  0  0  0  0  0  0
    2.9320   46.0660   53.8120 C   0  0  0  0  0  0  0  0  0  0  0  0
    3.4490   46.0460   55.0510 N   0  0  0  0  0  0  0  0  0  0  0  0
    2.3860   45.6230   55.8450 O   0  0  0  0  0  0  0  0  0  0  0  0
    1.3230   45.4180   55.0120 C   0  0  0  0  0  0  0  0  0  0  0  0
    0.0840   44.9610   55.6120 C   0  0  0  0  0  0  0  0  0  0  0  0
   -0.8420   44.2260   54.8640 C   0  0  0  0  0  0  0  0  0  0  0  0
   -2.0290   43.7910   55.4510 C   0  0  0  0  0  0  0  0  0  0  0  0
   -2.2580   44.1040   56.7800 C   0  0  0  0  0  0  0  0  0  0  0  0
   -1.3930   44.8100   57.5380 N   0  0  0  0  0  0  0  0  0  0  0  0
   -0.2470   45.2210   56.9400 C   0  0  0  0  0  0  0  0  0  0  0  0
    1.6030   45.6710   53.7510 N   0  0  0  0  0  0  0  0  0  0  0  0
    5.2930   45.5170   53.4880 H   0  0  0  0  0  0  0  0  0  0  0  0
    5.6374   47.1824   51.0492 H   0  0  0  0  0  0  0  0  0  0  0  0
    8.1274   46.5377   51.9302 H   0  0  0  0  0  0  0  0  0  0  0  0
    7.1034   48.0416   52.2830 H   0  0  0  0  0  0  0  0  0  0  0  0
    7.1600   45.6378   54.0923 H   0  0  0  0  0  0  0  0  0  0  0  0
    8.3044   47.0317   54.2379 H   0  0  0  0  0  0  0  0  0  0  0  0
    6.0650   46.9240   55.3710 H   0  0  0  0  0  0  0  0  0  0  0  0
    5.9170   45.6916   49.6643 H   0  0  0  0  0  0  0  0  0  0  0  0
    8.3189   45.8910   50.3070 H   0  0  0  0  0  0  0  0  0  0  0  0
    8.1194   44.4002   51.3240 H   0  0  0  0  0  0  0  0  0  0  0  0
    8.1904   44.7061   48.3325 H   0  0  0  0  0  0  0  0  0  0  0  0
    8.9496   43.4626   49.4374 H   0  0  0  0  0  0  0  0  0  0  0  0
    6.2491   43.5160   48.1636 H   0  0  0  0  0  0  0  0  0  0  0  0
    7.3827   42.1433   48.5134 H   0  0  0  0  0  0  0  0  0  0  0  0
    5.3542   41.9808   49.8785 H   0  0  0  0  0  0  0  0  0  0  0  0
    6.8271   42.2893   50.8905 H   0  0  0  0  0  0  0  0  0  0  0  0
    4.4845   44.0825   50.2869 H   0  0  0  0  0  0  0  0  0  0  0  0
    5.3783   43.7522   51.8473 H   0  0  0  0  0  0  0  0  0  0  0  0
   -0.6328   43.9908   53.8100 H   0  0  0  0  0  0  0  0  0  0  0  0
   -2.7653   43.2135   54.8728 H   0  0  0  0  0  0  0  0  0  0  0  0
   -3.1945   43.7590   57.2426 H   0  0  0  0  0  0  0  0  0  0  0  0
    0.4687   45.7981   57.5439 H   0  0  0  0  0  0  0  0  0  0  0  0
  1  2  2  0
  2  3  1  0
  3  4  1  0
  4  5  1  0
  5  6  1  0
  6  7  1  0
  4  8  1  0
  8  9  1  0
  9 10  1  0
 10 11  1  0
 11 12  1  0
 12 13  1  0
  2 14  1  0
 14 15  2  0
 15 16  1  0
 16 17  1  0
 17 18  1  0
 18 19  2  0
 19 20  1  0
 20 21  2  0
 21 22  1  0
 22 23  2  0
 17 24  2  0
 13  8  1  0
 24 14  1  0
 23 18  1  0
  3 25  1  0
  4 26  1  0
  5 27  1  0
  5 28  1  0
  6 29  1  0
  6 30  1  0
  7 31  1  0
  8 32  1  0
  9 33  1  0
  9 34  1  0
 10 35  1  0
 10 36  1  0
 11 37  1  0
 11 38  1  0
 12 39  1  0
 12 40  1  0
 13 41  1  0
 13 42  1  0
 19 43  1  0
 20 44  1  0
 21 45  1  0
 23 46  1  0
M  END
>  <meeko>  (26) 
{"is_sidechain": false}

>  <CID>  (26) 
Z1381816014

>  <pose_index>  (26) 
1

>  <docking_score>  (26) 
-7.918

>  <num_viable_poses>  (26) 
7

>  <rmsd_pairwise_std>  (26) 
0.3251247306456402

>  <rmsd_to_best_std>  (26) 
0.2562431793609612

>  <MWT>  (26) 
330.3879999999996

>  <TPSA>  (26) 
101.14

>  <logP>  (26) 
2.1926999999999994

>  <HBD>  (26) 
2

>  <HBA>  (26) 
6

>  <SMILES>  (26) 
[H]OC([H])([H])C([H])([H])C([H])(N([H])C(=O)c1noc(-c2c([H])nc([H])c([H])c2[H])n1)C1([H])C([H])([H])C([H])([H])C([H])([H])C([H])([H])C1([H])[H]

$$$$
Z1463055422_pose2
     RDKit          3D

 45 47  0  0  0  0  0  0  0  0999 V2000
    3.1231   43.3705   52.1700 N   0  0  0  0  0  0  0  0  0  0  0  0
    3.4053   43.6880   53.4671 C   0  0  0  0  0  0  0  0  0  0  0  0
    3.3627   42.7984   54.3171 O   0  0  0  0  0  0  0  0  0  0  0  0
    3.6647   45.1967   53.8017 C   0  0  0  0  0  0  0  0  0  0  0  0
    5.1411   45.3641   53.7845 N   0  0  0  0  0  0  0  0  0  0  0  0
    5.7873   46.5423   53.4720 C   0  0  0  0  0  0  0  0  0  0  0  0
    5.2432   47.6418   53.4791 O   0  0  0  0  0  0  0  0  0  0  0  0
    7.2276   46.4408   53.0770 C   0  0  0  0  0  0  0  0  0  0  0  0
    8.0660   47.5097   53.4369 C   0  0  0  0  0  0  0  0  0  0  0  0
    9.4198   47.5073   53.0883 C   0  0  0  0  0  0  0  0  0  0  0  0
    9.9509   46.4406   52.3674 C   0  0  0  0  0  0  0  0  0  0  0  0
    9.1338   45.3693   52.0097 C   0  0  0  0  0  0  0  0  0  0  0  0
    7.7848   45.3552   52.3840 C   0  0  0  0  0  0  0  0  0  0  0  0
    7.0114   44.2822   52.0142 O   0  0  0  0  0  0  0  0  0  0  0  0
    6.5905   44.4122   50.6488 C   0  0  0  0  0  0  0  0  0  0  0  0
    7.2750   43.3439   49.8506 C   0  0  0  0  0  0  0  0  0  0  0  0
    8.3378   43.6989   48.8434 C   0  0  0  0  0  0  0  0  0  0  0  0
    7.0003   43.1915   48.3776 C   0  0  0  0  0  0  0  0  0  0  0  0
    3.1998   45.4562   55.2549 C   0  0  0  0  0  0  0  0  0  0  0  0
    1.8127   46.0706   55.3571 C   0  0  0  0  0  0  0  0  0  0  0  0
    1.0160   45.6656   54.2529 O   0  0  0  0  0  0  0  0  0  0  0  0
    1.4539   46.3045   53.0537 C   0  0  0  0  0  0  0  0  0  0  0  0
    2.9522   46.1392   52.8152 C   0  0  0  0  0  0  0  0  0  0  0  0
    2.8133   44.0874   51.5196 H   0  0  0  0  0  0  0  0  0  0  0  0
    2.8323   42.4184   51.9920 H   0  0  0  0  0  0  0  0  0  0  0  0
    5.6603   44.5355   53.5013 H   0  0  0  0  0  0  0  0  0  0  0  0
    7.6518   48.3590   54.0000 H   0  0  0  0  0  0  0  0  0  0  0  0
   10.0653   48.3477   53.3832 H   0  0  0  0  0  0  0  0  0  0  0  0
   11.0129   46.4434   52.0808 H   0  0  0  0  0  0  0  0  0  0  0  0
    9.5505   44.5317   51.4311 H   0  0  0  0  0  0  0  0  0  0  0  0
    5.4996   44.2882   50.5808 H   0  0  0  0  0  0  0  0  0  0  0  0
    6.8530   45.4074   50.2606 H   0  0  0  0  0  0  0  0  0  0  0  0
    7.2228   42.6788   50.7252 H   0  0  0  0  0  0  0  0  0  0  0  0
    8.6132   44.7516   48.6824 H   0  0  0  0  0  0  0  0  0  0  0  0
    9.3835   43.4000   48.6782 H   0  0  0  0  0  0  0  0  0  0  0  0
    6.2980   43.8734   47.8758 H   0  0  0  0  0  0  0  0  0  0  0  0
    6.6635   42.3682   47.7306 H   0  0  0  0  0  0  0  0  0  0  0  0
    3.1944   44.4970   55.7934 H   0  0  0  0  0  0  0  0  0  0  0  0
    3.9032   46.1809   55.6907 H   0  0  0  0  0  0  0  0  0  0  0  0
    1.3357   45.7384   56.2910 H   0  0  0  0  0  0  0  0  0  0  0  0
    1.9036   47.1668   55.3522 H   0  0  0  0  0  0  0  0  0  0  0  0
    0.9111   45.8670   52.2028 H   0  0  0  0  0  0  0  0  0  0  0  0
    1.2489   47.3805   53.1550 H   0  0  0  0  0  0  0  0  0  0  0  0
    3.0948   45.7421   51.7993 H   0  0  0  0  0  0  0  0  0  0  0  0
    3.3995   47.1336   52.9603 H   0  0  0  0  0  0  0  0  0  0  0  0
  1  2  1  0
  2  3  2  0
  2  4  1  0
  4  5  1  0
  5  6  1  0
  6  7  2  0
  6  8  1  0
  8  9  2  0
  9 10  1  0
 10 11  2  0
 11 12  1  0
 12 13  2  0
 13 14  1  0
 14 15  1  0
 15 16  1  0
 16 17  1  0
 17 18  1  0
  4 19  1  0
 19 20  1  0
 20 21  1  0
 21 22  1  0
 22 23  1  0
 23  4  1  0
 13  8  1  0
 18 16  1  0
  1 24  1  0
  1 25  1  0
  5 26  1  0
  9 27  1  0
 10 28  1  0
 11 29  1  0
 12 30  1  0
 15 31  1  0
 15 32  1  0
 16 33  1  0
 17 34  1  0
 17 35  1  0
 18 36  1  0
 18 37  1  0
 19 38  1  0
 19 39  1  0
 20 40  1  0
 20 41  1  0
 22 42  1  0
 22 43  1  0
 23 44  1  0
 23 45  1  0
M  END
>  <meeko>  (27) 
{"is_sidechain": false}

>  <CID>  (27) 
Z1463055422

>  <pose_index>  (27) 
2

>  <docking_score>  (27) 
-8.417

>  <num_viable_poses>  (27) 
6

>  <rmsd_pairwise_std>  (27) 
0.46014902344950265

>  <rmsd_to_best_std>  (27) 
0.24494180927846043

>  <MWT>  (27) 
318.37299999999965

>  <TPSA>  (27) 
90.65

>  <logP>  (27) 
1.2396999999999994

>  <HBD>  (27) 
2

>  <HBA>  (27) 
4

>  <SMILES>  (27) 
[H]c1c([H])c([H])c(C(=O)N([H])C2(C(=O)N([H])[H])C([H])([H])C([H])([H])OC([H])([H])C2([H])[H])c(OC([H])([H])C2([H])C([H])([H])C2([H])[H])c1[H]

$$$$
Z1526896036_pose1
     RDKit          3D

 47 49  0  0  0  0  0  0  0  0999 V2000
    0.0560   45.2770   55.6680 C   0  0  0  0  0  0  0  0  0  0  0  0
    0.4210   44.5390   54.4160 C   0  0  0  0  0  0  0  0  0  0  0  0
   -0.5450   44.2310   53.4840 C   0  0  0  0  0  0  0  0  0  0  0  0
   -0.1180   43.5380   52.3720 C   0  0  0  0  0  0  0  0  0  0  0  0
   -1.0890   43.1590   51.2960 C   0  0  0  0  0  0  0  0  0  0  0  0
    1.1680   43.1790   52.1960 N   0  0  0  0  0  0  0  0  0  0  0  0
    2.0510   43.5100   53.1490 C   0  0  0  0  0  0  0  0  0  0  0  0
    3.4010   43.1790   53.0590 N   0  0  0  0  0  0  0  0  0  0  0  0
    4.4540   43.5770   52.2270 C   0  0  0  0  0  0  0  0  0  0  0  0
    4.5940   42.9470   50.9830 C   0  0  0  0  0  0  0  0  0  0  0  0
    5.6270   43.2930   50.1140 C   0  0  0  0  0  0  0  0  0  0  0  0
    6.5410   44.2780   50.4810 C   0  0  0  0  0  0  0  0  0  0  0  0
    6.4500   44.9340   51.7170 C   0  0  0  0  0  0  0  0  0  0  0  0
    7.3970   45.9310   52.0420 N   0  0  0  0  0  0  0  0  0  0  0  0
    6.7590   47.2500   52.2590 C   0  0  0  0  0  0  0  0  0  0  0  0
    7.8010   48.3680   52.3530 C   0  0  0  0  0  0  0  0  0  0  0  0
    9.1550   47.8860   52.8740 C   0  0  0  0  0  0  0  0  0  0  0  0
    9.0680   47.5210   54.3530 C   0  0  0  0  0  0  0  0  0  0  0  0
   10.2190   47.1130   54.9530 N   0  0  0  0  0  0  0  0  0  0  0  0
    8.0110   47.5440   54.9770 O   0  0  0  0  0  0  0  0  0  0  0  0
    9.7150   46.7410   52.0170 C   0  0  0  0  0  0  0  0  0  0  0  0
    8.6310   45.9770   51.2460 C   0  0  0  0  0  0  0  0  0  0  0  0
    5.3920   44.5620   52.5700 C   0  0  0  0  0  0  0  0  0  0  0  0
    1.7130   44.1830   54.2620 N   0  0  0  0  0  0  0  0  0  0  0  0
    0.3508   44.6809   56.5442 H   0  0  0  0  0  0  0  0  0  0  0  0
    0.5797   46.2441   55.6894 H   0  0  0  0  0  0  0  0  0  0  0  0
   -1.0305   45.4478   55.6894 H   0  0  0  0  0  0  0  0  0  0  0  0
   -1.5973   44.5215   53.6195 H   0  0  0  0  0  0  0  0  0  0  0  0
   -2.0206   42.7954   51.7542 H   0  0  0  0  0  0  0  0  0  0  0  0
   -1.3063   44.0383   50.6718 H   0  0  0  0  0  0  0  0  0  0  0  0
   -0.6531   42.3650   50.6718 H   0  0  0  0  0  0  0  0  0  0  0  0
    3.6000   42.4620   53.7410 H   0  0  0  0  0  0  0  0  0  0  0  0
    3.8769   42.1668   50.6878 H   0  0  0  0  0  0  0  0  0  0  0  0
    5.7204   42.7894   49.1405 H   0  0  0  0  0  0  0  0  0  0  0  0
    7.3509   44.5468   49.7869 H   0  0  0  0  0  0  0  0  0  0  0  0
    6.0817   47.4622   51.4186 H   0  0  0  0  0  0  0  0  0  0  0  0
    6.2048   47.2136   53.2085 H   0  0  0  0  0  0  0  0  0  0  0  0
    7.9447   48.7974   51.3505 H   0  0  0  0  0  0  0  0  0  0  0  0
    7.4203   49.1108   53.0695 H   0  0  0  0  0  0  0  0  0  0  0  0
    9.8717   48.7159   52.7866 H   0  0  0  0  0  0  0  0  0  0  0  0
   10.1780   46.7860   55.9080 H   0  0  0  0  0  0  0  0  0  0  0  0
   11.0500   46.9130   54.3960 H   0  0  0  0  0  0  0  0  0  0  0  0
   10.4276   47.1626   51.2928 H   0  0  0  0  0  0  0  0  0  0  0  0
   10.1952   46.0257   52.7009 H   0  0  0  0  0  0  0  0  0  0  0  0
    8.4321   46.4875   50.2922 H   0  0  0  0  0  0  0  0  0  0  0  0
    8.9771   44.9513   51.0507 H   0  0  0  0  0  0  0  0  0  0  0  0
    5.2978   45.0642   53.5441 H   0  0  0  0  0  0  0  0  0  0  0  0
  1  2  1  0
  2  3  2  0
  3  4  1  0
  4  5  1  0
  4  6  2  0
  6  7  1  0
  7  8  1  0
  8  9  1  0
  9 10  2  0
 10 11  1  0
 11 12  2  0
 12 13  1  0
 13 14  1  0
 14 15  1  0
 15 16  1  0
 16 17  1  0
 17 18  1  0
 18 19  1  0
 18 20  2  0
 17 21  1  0
 21 22  1  0
 13 23  2  0
  7 24  2  0
 24  2  1  0
 23  9  1  0
 22 14  1  0
  1 25  1  0
  1 26  1  0
  1 27  1  0
  3 28  1  0
  5 29  1  0
  5 30  1  0
  5 31  1  0
  8 32  1  0
 10 33  1  0
 11 34  1  0
 12 35  1  0
 15 36  1  0
 15 37  1  0
 16 38  1  0
 16 39  1  0
 17 40  1  0
 19 41  1  0
 19 42  1  0
 21 43  1  0
 21 44  1  0
 22 45  1  0
 22 46  1  0
 23 47  1  0
M  END
>  <meeko>  (28) 
{"is_sidechain": false}

>  <CID>  (28) 
Z1526896036

>  <pose_index>  (28) 
1

>  <docking_score>  (28) 
-9.115

>  <num_viable_poses>  (28) 
6

>  <rmsd_pairwise_std>  (28) 
0.4359408022585471

>  <rmsd_to_best_std>  (28) 
0.5054917726575641

>  <MWT>  (28) 
325.4159999999996

>  <TPSA>  (28) 
84.14

>  <logP>  (28) 
2.5387400000000007

>  <HBD>  (28) 
2

>  <HBA>  (28) 
5

>  <SMILES>  (28) 
[H]c1c(C([H])([H])[H])nc(N([H])c2c([H])c([H])c([H])c(N3C([H])([H])C([H])([H])C([H])(C(=O)N([H])[H])C([H])([H])C3([H])[H])c2[H])nc1C([H])([H])[H]

$$$$
Z1546707089_pose1
     RDKit          3D

 55 58  0  0  0  0  0  0  0  0999 V2000
    7.9710   45.2950   50.0810 N   0  0  0  0  0  0  0  0  0  0  0  0
    7.4170   45.6750   51.3090 C   0  0  0  0  0  0  0  0  0  0  0  0
    6.1050   45.4430   51.4360 N   0  0  0  0  0  0  0  0  0  0  0  0
    5.5110   45.7980   52.5850 C   0  0  0  0  0  0  0  0  0  0  0  0
    4.1450   45.5330   52.7390 N   0  0  0  0  0  0  0  0  0  0  0  0
    3.2510   46.4610   52.0610 C   0  0  0  0  0  0  0  0  0  0  0  0
    1.8420   46.3550   52.6610 C   0  0  0  0  0  0  0  0  0  0  0  0
    1.5890   45.0400   53.4290 C   0  0  0  0  0  0  0  0  0  0  0  0
    0.0800   44.8310   53.6020 C   0  0  0  0  0  0  0  0  0  0  0  0
   -0.4300   45.2540   54.9760 N   0  0  0  0  0  4  0  0  0  0  0  0
    0.6320   45.0110   56.0270 C   0  0  0  0  0  0  0  0  0  0  0  0
    0.5430   45.9780   57.2160 C   0  0  0  0  0  0  0  0  0  0  0  0
   -0.7520   46.7700   57.3910 C   0  0  0  0  0  0  0  0  0  0  0  0
   -2.0160   45.9230   57.5150 C   0  0  0  0  0  0  0  0  0  0  0  0
   -2.6590   45.4780   56.2000 C   0  0  0  0  0  0  0  0  0  0  0  0
   -1.7700   44.6260   55.3050 C   0  0  0  0  0  0  0  0  0  0  0  0
    2.2980   43.8930   52.6990 C   0  0  0  0  0  0  0  0  0  0  0  0
    3.8170   44.1100   52.6700 C   0  0  0  0  0  0  0  0  0  0  0  0
    6.1790   46.3580   53.6030 N   0  0  0  0  0  0  0  0  0  0  0  0
    7.4860   46.5920   53.4670 C   0  0  0  0  0  0  0  0  0  0  0  0
    8.1800   47.1790   54.5180 C   0  0  0  0  0  0  0  0  0  0  0  0
    9.5460   47.4590   54.4360 C   0  0  0  0  0  0  0  0  0  0  0  0
   10.2440   47.1530   53.2750 C   0  0  0  0  0  0  0  0  0  0  0  0
    9.5700   46.5620   52.2100 C   0  0  0  0  0  0  0  0  0  0  0  0
    8.1880   46.2730   52.3070 C   0  0  0  0  0  0  0  0  0  0  0  0
    7.2180   45.2650   49.3990 H   0  0  0  0  0  0  0  0  0  0  0  0
    8.4490   44.4010   50.1510 H   0  0  0  0  0  0  0  0  0  0  0  0
    3.6257   47.4875   52.1870 H   0  0  0  0  0  0  0  0  0  0  0  0
    3.2105   46.2110   50.9906 H   0  0  0  0  0  0  0  0  0  0  0  0
    1.6967   47.1956   53.3554 H   0  0  0  0  0  0  0  0  0  0  0  0
    1.1333   46.3762   51.8200 H   0  0  0  0  0  0  0  0  0  0  0  0
    2.0111   45.0783   54.4441 H   0  0  0  0  0  0  0  0  0  0  0  0
   -0.4450   45.4216   52.8368 H   0  0  0  0  0  0  0  0  0  0  0  0
   -0.1156   43.7536   53.4974 H   0  0  0  0  0  0  0  0  0  0  0  0
   -0.5670   46.2680   54.9200 H   0  0  0  0  0  0  0  0  0  0  0  0
    0.5215   43.9835   56.4038 H   0  0  0  0  0  0  0  0  0  0  0  0
    1.6083   45.1741   55.5471 H   0  0  0  0  0  0  0  0  0  0  0  0
    0.6935   45.3876   58.1318 H   0  0  0  0  0  0  0  0  0  0  0  0
    1.3100   46.7399   57.0132 H   0  0  0  0  0  0  0  0  0  0  0  0
   -0.6588   47.3789   58.3023 H   0  0  0  0  0  0  0  0  0  0  0  0
   -0.8720   47.3681   56.4756 H   0  0  0  0  0  0  0  0  0  0  0  0
   -1.7601   45.0189   58.0870 H   0  0  0  0  0  0  0  0  0  0  0  0
   -2.7592   46.5705   58.0033 H   0  0  0  0  0  0  0  0  0  0  0  0
   -3.5598   44.8945   56.4410 H   0  0  0  0  0  0  0  0  0  0  0  0
   -2.8723   46.3977   55.6355 H   0  0  0  0  0  0  0  0  0  0  0  0
   -1.5858   43.6683   55.8139 H   0  0  0  0  0  0  0  0  0  0  0  0
   -2.3048   44.5077   54.3511 H   0  0  0  0  0  0  0  0  0  0  0  0
    2.0802   42.9480   53.2182 H   0  0  0  0  0  0  0  0  0  0  0  0
    1.9306   43.8592   51.6627 H   0  0  0  0  0  0  0  0  0  0  0  0
    4.2704   43.5944   53.5294 H   0  0  0  0  0  0  0  0  0  0  0  0
    4.2106   43.7053   51.7259 H   0  0  0  0  0  0  0  0  0  0  0  0
    7.6379   47.4305   55.4415 H   0  0  0  0  0  0  0  0  0  0  0  0
   10.0670   47.9202   55.2879 H   0  0  0  0  0  0  0  0  0  0  0  0
   11.3185   47.3754   53.1978 H   0  0  0  0  0  0  0  0  0  0  0  0
   10.1155   46.3179   51.2865 H   0  0  0  0  0  0  0  0  0  0  0  0
  1  2  1  0
  2  3  2  0
  3  4  1  0
  4  5  1  0
  5  6  1  0
  6  7  1  0
  7  8  1  0
  8  9  1  0
  9 10  1  0
 10 11  1  0
 11 12  1  0
 12 13  1  0
 13 14  1  0
 14 15  1  0
 15 16  1  0
  8 17  1  0
 17 18  1  0
  4 19  2  0
 19 20  1  0
 20 21  2  0
 21 22  1  0
 22 23  2  0
 23 24  1  0
 24 25  2  0
 25  2  1  0
 18  5  1  0
 25 20  1  0
 16 10  1  0
  1 26  1  0
  1 27  1  0
  6 28  1  0
  6 29  1  0
  7 30  1  0
  7 31  1  0
  8 32  1  0
  9 33  1  0
  9 34  1  0
 10 35  1  0
 11 36  1  0
 11 37  1  0
 12 38  1  0
 12 39  1  0
 13 40  1  0
 13 41  1  0
 14 42  1  0
 14 43  1  0
 15 44  1  0
 15 45  1  0
 16 46  1  0
 16 47  1  0
 17 48  1  0
 17 49  1  0
 18 50  1  0
 18 51  1  0
 21 52  1  0
 22 53  1  0
 23 54  1  0
 24 55  1  0
M  CHG  1  10   1
M  END
>  <meeko>  (29) 
{"is_sidechain": false}

>  <CID>  (29) 
Z1546707089

>  <pose_index>  (29) 
1

>  <docking_score>  (29) 
-6.726

>  <num_viable_poses>  (29) 
5

>  <rmsd_pairwise_std>  (29) 
0.3984589526802749

>  <rmsd_to_best_std>  (29) 
0.4243892300420575

>  <MWT>  (29) 
340.4949999999995

>  <TPSA>  (29) 
59.48

>  <logP>  (29) 
1.8873

>  <HBD>  (29) 
2

>  <HBA>  (29) 
4

>  <SMILES>  (29) 
[H]c1c([H])c([H])c2c(N([H])[H])nc(N3C([H])([H])C([H])([H])C([H])(C([H])([H])[N+]4([H])C([H])([H])C([H])([H])C([H])([H])C([H])([H])C([H])([H])C4([H])[H])C([H])([H])C3([H])[H])nc2c1[H]

$$$$
Z1570962597_pose1
     RDKit          3D

 41 44  0  0  0  0  0  0  0  0999 V2000
    1.3690   43.8660   54.0750 C   0  0  0  0  0  0  0  0  0  0  0  0
    1.3010   42.8410   53.1680 C   0  0  0  0  0  0  0  0  0  0  0  0
    2.2490   42.6040   52.2430 N   0  0  0  0  0  0  0  0  0  0  0  0
    3.3140   43.4230   52.2030 C   0  0  0  0  0  0  0  0  0  0  0  0
    4.3160   43.1930   51.2650 N   0  0  0  0  0  0  0  0  0  0  0  0
    4.4890   41.7910   50.8900 C   0  0  0  0  0  0  0  0  0  0  0  0
    5.8460   41.5570   50.2220 C   0  0  0  0  0  0  0  0  0  0  0  0
    6.2060   42.6950   49.2770 C   0  0  0  0  0  0  0  0  0  0  0  0
    6.2120   44.0700   49.9840 C   0  0  0  0  0  0  0  0  0  0  0  0
    7.6450   44.6180   50.0970 C   0  0  0  0  0  0  0  0  0  0  0  0
    7.6700   46.0370   50.4370 N   0  0  0  0  0  0  0  0  0  0  0  0
    8.2050   46.4220   51.6550 C   0  0  0  0  0  0  0  0  0  0  0  0
    9.5350   46.5820   51.8250 N   0  0  0  0  0  0  0  0  0  0  0  0
   10.0040   46.9460   53.0370 C   0  0  0  0  0  0  0  0  0  0  0  0
    9.3100   47.1890   54.1540 N   0  0  0  0  0  0  0  0  0  0  0  0
    7.9870   47.0390   53.9730 C   0  0  0  0  0  0  0  0  0  0  0  0
    7.0300   47.2310   54.9350 N   0  0  0  0  0  0  0  0  0  0  0  0
    5.8890   46.9920   54.3290 C   0  0  0  0  0  0  0  0  0  0  0  0
    6.0730   46.6520   53.0180 N   0  0  0  0  0  0  0  0  0  0  0  0
    7.4190   46.6690   52.7680 C   0  0  0  0  0  0  0  0  0  0  0  0
    5.5130   44.0230   51.3580 C   0  0  0  0  0  0  0  0  0  0  0  0
    3.4590   44.4490   53.0640 N   0  0  0  0  0  0  0  0  0  0  0  0
    2.4880   44.6490   53.9760 C   0  0  0  0  0  0  0  0  0  0  0  0
    0.5848   44.0460   54.8251 H   0  0  0  0  0  0  0  0  0  0  0  0
    0.4248   42.1766   53.1977 H   0  0  0  0  0  0  0  0  0  0  0  0
    4.4224   41.1676   51.7938 H   0  0  0  0  0  0  0  0  0  0  0  0
    3.6986   41.5234   50.1733 H   0  0  0  0  0  0  0  0  0  0  0  0
    6.6193   41.4807   51.0006 H   0  0  0  0  0  0  0  0  0  0  0  0
    5.7869   40.6276   49.6365 H   0  0  0  0  0  0  0  0  0  0  0  0
    7.2075   42.5066   48.8628 H   0  0  0  0  0  0  0  0  0  0  0  0
    5.4420   42.7282   48.4863 H   0  0  0  0  0  0  0  0  0  0  0  0
    5.6285   44.7632   49.3603 H   0  0  0  0  0  0  0  0  0  0  0  0
    8.1775   44.0573   50.8794 H   0  0  0  0  0  0  0  0  0  0  0  0
    8.1294   44.4982   49.1167 H   0  0  0  0  0  0  0  0  0  0  0  0
    6.8660   46.5660   50.1320 H   0  0  0  0  0  0  0  0  0  0  0  0
   11.0955   47.0569   53.1161 H   0  0  0  0  0  0  0  0  0  0  0  0
    4.9055   47.0575   54.8172 H   0  0  0  0  0  0  0  0  0  0  0  0
    5.3460   46.4410   52.3510 H   0  0  0  0  0  0  0  0  0  0  0  0
    6.1989   43.5955   52.1042 H   0  0  0  0  0  0  0  0  0  0  0  0
    5.2308   45.0419   51.6617 H   0  0  0  0  0  0  0  0  0  0  0  0
    2.6001   45.4871   54.6796 H   0  0  0  0  0  0  0  0  0  0  0  0
  1  2  2  0
  2  3  1  0
  3  4  2  0
  4  5  1  0
  5  6  1  0
  6  7  1  0
  7  8  1  0
  8  9  1  0
  9 10  1  0
 10 11  1  0
 11 12  1  0
 12 13  2  0
 13 14  1  0
 14 15  2  0
 15 16  1  0
 16 17  1  0
 17 18  2  0
 18 19  1  0
 19 20  1  0
  9 21  1  0
  4 22  1  0
 22 23  2  0
 23  1  1  0
 21  5  1  0
 20 12  1  0
 20 16  2  0
  1 24  1  0
  2 25  1  0
  6 26  1  0
  6 27  1  0
  7 28  1  0
  7 29  1  0
  8 30  1  0
  8 31  1  0
  9 32  1  0
 10 33  1  0
 10 34  1  0
 11 35  1  0
 14 36  1  0
 18 37  1  0
 19 38  1  0
 21 39  1  0
 21 40  1  0
 23 41  1  0
M  END
>  <meeko>  (30) 
{"is_sidechain": false}

>  <CID>  (30) 
Z1570962597

>  <pose_index>  (30) 
1

>  <docking_score>  (30) 
-8.557

>  <num_viable_poses>  (30) 
5

>  <rmsd_pairwise_std>  (30) 
0.389052825989657

>  <rmsd_to_best_std>  (30) 
0.4070464074714776

>  <MWT>  (30) 
310.36499999999967

>  <TPSA>  (30) 
95.51

>  <logP>  (30) 
1.4714

>  <HBD>  (30) 
2

>  <HBA>  (30) 
7

>  <SMILES>  (30) 
[H]c1nc(N([H])C([H])([H])C2([H])C([H])([H])N(c3nc([H])c([H])c([H])n3)C([H])([H])C([H])([H])C2([H])[H])c2c(n1)nc([H])n2[H]

$$$$
Z1576583090_pose1
     RDKit          3D

 43 46  0  0  0  0  0  0  0  0999 V2000
   -0.7780   43.6370   52.8620 C   0  0  0  0  0  0  0  0  0  0  0  0
    0.2890   44.1920   53.6560 N   0  0  0  0  0  0  0  0  0  0  0  0
   -0.0120   44.9370   54.7500 N   0  0  0  0  0  0  0  0  0  0  0  0
    1.1870   45.2810   55.2400 C   0  0  0  0  0  0  0  0  0  0  0  0
    2.2320   44.7670   54.4660 C   0  0  0  0  0  0  0  0  0  0  0  0
    3.6590   44.8190   54.5200 C   0  0  0  0  0  0  0  0  0  0  0  0
    4.3030   45.4060   55.3810 O   0  0  0  0  0  0  0  0  0  0  0  0
    4.2460   44.1280   53.4780 N   0  0  0  0  0  0  0  0  0  0  0  0
    3.5530   43.4570   52.4780 C   0  0  0  0  0  0  0  0  0  0  0  0
    4.2810   42.8030   51.5200 N   0  0  0  0  0  0  0  0  0  0  0  0
    5.4090   43.3040   50.8300 C   0  0  0  0  0  0  0  0  0  0  0  0
    5.8820   42.5810   49.7270 C   0  0  0  0  0  0  0  0  0  0  0  0
    6.9970   43.0160   49.0130 C   0  0  0  0  0  0  0  0  0  0  0  0
    7.6520   44.1840   49.4000 C   0  0  0  0  0  0  0  0  0  0  0  0
    7.1980   44.9260   50.4920 C   0  0  0  0  0  0  0  0  0  0  0  0
    7.9280   46.0510   50.7510 O   0  0  0  0  0  0  0  0  0  0  0  0
    8.2090   46.3940   52.1010 C   0  0  0  0  0  0  0  0  0  0  0  0
    9.7110   46.2600   52.3460 C   0  0  0  0  0  0  0  0  0  0  0  0
    9.9630   47.1060   53.5870 C   0  0  0  0  0  0  0  0  0  0  0  0
    8.8630   48.1660   53.5990 C   0  0  0  0  0  0  0  0  0  0  0  0
    7.9850   47.8760   52.3880 C   0  0  0  0  0  0  0  0  0  0  0  0
    6.0760   44.4850   51.1980 C   0  0  0  0  0  0  0  0  0  0  0  0
    2.2450   43.3920   52.4420 N   0  0  0  0  0  0  0  0  0  0  0  0
    1.6340   44.0670   53.4470 C   0  0  0  0  0  0  0  0  0  0  0  0
   -1.5564   43.2321   53.5255 H   0  0  0  0  0  0  0  0  0  0  0  0
   -1.2105   44.4244   52.2272 H   0  0  0  0  0  0  0  0  0  0  0  0
   -0.3816   42.8308   52.2272 H   0  0  0  0  0  0  0  0  0  0  0  0
    1.3316   45.8937   56.1421 H   0  0  0  0  0  0  0  0  0  0  0  0
    5.2530   44.0910   53.4800 H   0  0  0  0  0  0  0  0  0  0  0  0
    3.6830   42.2700   50.8940 H   0  0  0  0  0  0  0  0  0  0  0  0
    5.3669   41.6586   49.4208 H   0  0  0  0  0  0  0  0  0  0  0  0
    7.3585   42.4404   48.1481 H   0  0  0  0  0  0  0  0  0  0  0  0
    8.5352   44.5244   48.8396 H   0  0  0  0  0  0  0  0  0  0  0  0
    7.5629   45.7444   52.7097 H   0  0  0  0  0  0  0  0  0  0  0  0
    9.9848   45.2101   52.5272 H   0  0  0  0  0  0  0  0  0  0  0  0
   10.3099   46.5877   51.4835 H   0  0  0  0  0  0  0  0  0  0  0  0
    9.9055   46.4842   54.4926 H   0  0  0  0  0  0  0  0  0  0  0  0
   10.9640   47.5617   53.5697 H   0  0  0  0  0  0  0  0  0  0  0  0
    8.2730   48.0938   54.5246 H   0  0  0  0  0  0  0  0  0  0  0  0
    9.2828   49.1819   53.5575 H   0  0  0  0  0  0  0  0  0  0  0  0
    6.9274   48.0721   52.6184 H   0  0  0  0  0  0  0  0  0  0  0  0
    8.2366   48.5120   51.5265 H   0  0  0  0  0  0  0  0  0  0  0  0
    5.7094   45.0705   52.0541 H   0  0  0  0  0  0  0  0  0  0  0  0
  1  2  1  0
  2  3  1  0
  3  4  2  0
  4  5  1  0
  5  6  1  0
  6  7  2  0
  6  8  1  0
  8  9  1  0
  9 10  1  0
 10 11  1  0
 11 12  2  0
 12 13  1  0
 13 14  2  0
 14 15  1  0
 15 16  1  0
 16 17  1  0
 17 18  1  0
 18 19  1  0
 19 20  1  0
 20 21  1  0
 15 22  2  0
  9 23  2  0
 23 24  1  0
 24  2  1  0
 24  5  2  0
 22 11  1  0
 21 17  1  0
  1 25  1  0
  1 26  1  0
  1 27  1  0
  4 28  1  0
  8 29  1  0
 10 30  1  0
 12 31  1  0
 13 32  1  0
 14 33  1  0
 17 34  1  0
 18 35  1  0
 18 36  1  0
 19 37  1  0
 19 38  1  0
 20 39  1  0
 20 40  1  0
 21 41  1  0
 21 42  1  0
 22 43  1  0
M  END
>  <meeko>  (31) 
{"is_sidechain": false}

>  <CID>  (31) 
Z1576583090

>  <pose_index>  (31) 
1

>  <docking_score>  (31) 
-9.894

>  <num_viable_poses>  (31) 
6

>  <rmsd_pairwise_std>  (31) 
0.32605949003221096

>  <rmsd_to_best_std>  (31) 
0.33017957248840946

>  <MWT>  (31) 
325.3719999999997

>  <TPSA>  (31) 
84.83

>  <logP>  (31) 
2.7216000000000005

>  <HBD>  (31) 
2

>  <HBA>  (31) 
6

>  <SMILES>  (31) 
[H]c1c([H])c(OC2([H])C([H])([H])C([H])([H])C([H])([H])C2([H])[H])c([H])c(N([H])c2nc3c(c([H])nn3C([H])([H])[H])c(=O)n2[H])c1[H]

$$$$
Z1587211729_pose1
     RDKit          3D

 34 36  0  0  0  0  0  0  0  0999 V2000
    5.2020   47.5700   54.5390 O   0  0  0  0  0  0  0  0  0  0  0  0
    5.7090   46.7470   53.4570 S   0  0  0  0  0  0  0  0  0  0  0  0
    5.2400   46.9700   52.0990 O   0  0  0  0  0  0  0  0  0  0  0  0
    5.3910   45.0450   53.8450 C   0  0  0  0  0  0  0  0  0  0  0  0
    3.9690   44.6170   53.5340 C   0  0  0  0  0  0  0  0  0  0  0  0
    3.7490   44.6180   52.0890 N   0  0  0  0  0  0  0  0  0  0  0  0
    4.2800   43.5200   51.4100 C   0  0  0  0  0  0  0  0  0  0  0  0
    3.7070   42.3010   51.4450 N   0  0  0  0  0  0  0  0  0  0  0  0
    4.2770   41.2960   50.7450 C   0  0  0  0  0  0  0  0  0  0  0  0
    5.3800   41.3340   49.9880 N   0  0  0  0  0  0  0  0  0  0  0  0
    5.9550   42.5490   49.9840 C   0  0  0  0  0  0  0  0  0  0  0  0
    7.1090   42.8860   49.3270 N   0  0  0  0  0  0  0  0  0  0  0  0
    7.3170   44.1480   49.6320 C   0  0  0  0  0  0  0  0  0  0  0  0
    6.3360   44.6410   50.4470 N   0  0  0  0  0  0  0  0  0  0  0  0
    5.4400   43.6320   50.6680 C   0  0  0  0  0  0  0  0  0  0  0  0
    7.4790   46.9170   53.4130 C   0  0  0  0  0  0  0  0  0  0  0  0
    8.1710   47.1840   54.5970 C   0  0  0  0  0  0  0  0  0  0  0  0
    9.5610   47.3020   54.5690 C   0  0  0  0  0  0  0  0  0  0  0  0
   10.2520   47.1430   53.3660 C   0  0  0  0  0  0  0  0  0  0  0  0
    9.5570   46.8600   52.1890 C   0  0  0  0  0  0  0  0  0  0  0  0
    8.1670   46.7370   52.2090 C   0  0  0  0  0  0  0  0  0  0  0  0
    6.0806   44.4183   53.2604 H   0  0  0  0  0  0  0  0  0  0  0  0
    5.5397   44.9232   54.9281 H   0  0  0  0  0  0  0  0  0  0  0  0
    3.7998   43.6037   53.9271 H   0  0  0  0  0  0  0  0  0  0  0  0
    3.2693   45.3229   54.0053 H   0  0  0  0  0  0  0  0  0  0  0  0
    2.7720   44.7210   51.8250 H   0  0  0  0  0  0  0  0  0  0  0  0
    3.7697   40.3218   50.8049 H   0  0  0  0  0  0  0  0  0  0  0  0
    8.1756   44.7356   49.2750 H   0  0  0  0  0  0  0  0  0  0  0  0
    6.3020   45.5620   50.8620 H   0  0  0  0  0  0  0  0  0  0  0  0
    7.6240   47.3003   55.5443 H   0  0  0  0  0  0  0  0  0  0  0  0
   10.1129   47.5204   55.4951 H   0  0  0  0  0  0  0  0  0  0  0  0
   11.3474   47.2411   53.3458 H   0  0  0  0  0  0  0  0  0  0  0  0
   10.1058   46.7337   51.2441 H   0  0  0  0  0  0  0  0  0  0  0  0
    7.6175   46.5006   51.2859 H   0  0  0  0  0  0  0  0  0  0  0  0
  1  2  2  0
  2  3  2  0
  2  4  1  0
  4  5  1  0
  5  6  1  0
  6  7  1  0
  7  8  2  0
  8  9  1  0
  9 10  2  0
 10 11  1  0
 11 12  1  0
 12 13  2  0
 13 14  1  0
 14 15  1  0
  2 16  1  0
 16 17  2  0
 17 18  1  0
 18 19  2  0
 19 20  1  0
 20 21  2  0
 15  7  1  0
 21 16  1  0
 15 11  2  0
  4 22  1  0
  4 23  1  0
  5 24  1  0
  5 25  1  0
  6 26  1  0
  9 27  1  0
 13 28  1  0
 14 29  1  0
 17 30  1  0
 18 31  1  0
 19 32  1  0
 20 33  1  0
 21 34  1  0
M  END
>  <meeko>  (32) 
{"is_sidechain": false}

>  <CID>  (32) 
Z1587211729

>  <pose_index>  (32) 
1

>  <docking_score>  (32) 
-8.038

>  <num_viable_poses>  (32) 
5

>  <rmsd_pairwise_std>  (32) 
0.18549359795734036

>  <rmsd_to_best_std>  (32) 
0.056214868549046795

>  <MWT>  (32) 
303.3469999999998

>  <TPSA>  (32) 
100.63

>  <logP>  (32) 
1.238699999999999

>  <HBD>  (32) 
2

>  <HBA>  (32) 
6

>  <SMILES>  (32) 
[H]c1nc(N([H])C([H])([H])C([H])([H])S(=O)(=O)c2c([H])c([H])c([H])c([H])c2[H])c2c(n1)nc([H])n2[H]

$$$$
Z16226176_pose1
     RDKit          3D

 45 48  0  0  0  0  0  0  0  0999 V2000
    4.2480   48.7280   54.0640 O   0  0  0  0  0  0  0  0  0  0  0  0
    4.1190   47.6020   53.5900 C   0  0  0  0  0  0  0  0  0  0  0  0
    2.8840   47.1890   52.8080 C   0  0  0  0  0  0  0  0  0  0  0  0
    3.3490   46.4470   51.2170 S   0  0  0  0  0  0  0  0  0  0  0  0
    2.8940   44.8050   51.4690 C   0  0  0  0  0  0  0  0  0  0  0  0
    1.7780   44.3670   52.0320 N   0  0  0  0  0  0  0  0  0  0  0  0
    1.8000   42.9700   52.0300 N   0  0  0  0  0  0  0  0  0  0  0  0
    2.9210   42.6220   51.4550 C   0  0  0  0  0  0  0  0  0  0  0  0
    3.6150   41.5090   51.1180 N   0  0  0  0  0  0  0  0  0  0  0  0
    4.8630   41.9590   50.6420 C   0  0  0  0  0  0  0  0  0  0  0  0
    5.9340   41.2440   50.1640 C   0  0  0  0  0  0  0  0  0  0  0  0
    7.0290   41.9730   49.6810 C   0  0  0  0  0  0  0  0  0  0  0  0
    7.0260   43.3880   49.6610 C   0  0  0  0  0  0  0  0  0  0  0  0
    5.9280   44.1180   50.1180 C   0  0  0  0  0  0  0  0  0  0  0  0
    4.8740   43.3730   50.5890 C   0  0  0  0  0  0  0  0  0  0  0  0
    3.6480   43.7370   51.1200 N   0  0  0  0  0  0  0  0  0  0  0  0
    5.0750   46.6120   53.7130 N   0  0  0  0  0  0  0  0  0  0  0  0
    6.2590   46.8250   54.5190 C   0  0  0  0  0  0  0  0  0  0  0  0
    7.5650   46.4390   53.8110 C   0  0  0  0  0  0  0  0  0  0  0  0
    8.7590   47.2690   54.3090 C   0  0  0  0  0  0  0  0  0  0  0  0
   10.0590   46.8590   53.6180 C   0  0  0  0  0  0  0  0  0  0  0  0
    9.9350   46.9170   52.0980 C   0  0  0  0  0  0  0  0  0  0  0  0
    8.7480   46.0980   51.5980 C   0  0  0  0  0  0  0  0  0  0  0  0
    7.4480   46.5200   52.2790 C   0  0  0  0  0  0  0  0  0  0  0  0
    2.3134   46.4548   53.3957 H   0  0  0  0  0  0  0  0  0  0  0  0
    2.2723   48.0828   52.6157 H   0  0  0  0  0  0  0  0  0  0  0  0
    3.4980   40.6040   51.5480 H   0  0  0  0  0  0  0  0  0  0  0  0
    5.9322   40.1440   50.1605 H   0  0  0  0  0  0  0  0  0  0  0  0
    7.9117   41.4326   49.3086 H   0  0  0  0  0  0  0  0  0  0  0  0
    7.9071   43.9233   49.2774 H   0  0  0  0  0  0  0  0  0  0  0  0
    5.9077   45.2177   50.1022 H   0  0  0  0  0  0  0  0  0  0  0  0
    4.7330   45.6560   53.6330 H   0  0  0  0  0  0  0  0  0  0  0  0
    6.3105   47.8910   54.7856 H   0  0  0  0  0  0  0  0  0  0  0  0
    6.1679   46.1754   55.4020 H   0  0  0  0  0  0  0  0  0  0  0  0
    7.7520   45.3872   54.0732 H   0  0  0  0  0  0  0  0  0  0  0  0
    8.5653   48.3319   54.1025 H   0  0  0  0  0  0  0  0  0  0  0  0
    8.8736   47.0920   55.3886 H   0  0  0  0  0  0  0  0  0  0  0  0
   10.8617   47.5405   53.9361 H   0  0  0  0  0  0  0  0  0  0  0  0
   10.2856   45.8211   53.9034 H   0  0  0  0  0  0  0  0  0  0  0  0
    9.8003   47.9646   51.7908 H   0  0  0  0  0  0  0  0  0  0  0  0
   10.8521   46.4939   51.6622 H   0  0  0  0  0  0  0  0  0  0  0  0
    8.6459   46.2432   50.5124 H   0  0  0  0  0  0  0  0  0  0  0  0
    8.9343   45.0405   51.8368 H   0  0  0  0  0  0  0  0  0  0  0  0
    7.2136   47.5558   51.9922 H   0  0  0  0  0  0  0  0  0  0  0  0
    6.6498   45.8354   51.9560 H   0  0  0  0  0  0  0  0  0  0  0  0
  1  2  2  0
  2  3  1  0
  3  4  1  0
  4  5  1  0
  5  6  2  0
  6  7  1  0
  7  8  2  0
  8  9  1  0
  9 10  1  0
 10 11  2  0
 11 12  1  0
 12 13  2  0
 13 14  1  0
 14 15  2  0
 15 16  1  0
  2 17  1  0
 17 18  1  0
 18 19  1  0
 19 20  1  0
 20 21  1  0
 21 22  1  0
 22 23  1  0
 23 24  1  0
 16  5  1  0
 24 19  1  0
 16  8  1  0
 15 10  1  0
  3 25  1  0
  3 26  1  0
  9 27  1  0
 11 28  1  0
 12 29  1  0
 13 30  1  0
 14 31  1  0
 17 32  1  0
 18 33  1  0
 18 34  1  0
 19 35  1  0
 20 36  1  0
 20 37  1  0
 21 38  1  0
 21 39  1  0
 22 40  1  0
 22 41  1  0
 23 42  1  0
 23 43  1  0
 24 44  1  0
 24 45  1  0
M  END
>  <meeko>  (33) 
{"is_sidechain": false}

>  <CID>  (33) 
Z16226176

>  <pose_index>  (33) 
1

>  <docking_score>  (33) 
-9.411

>  <num_viable_poses>  (33) 
6

>  <rmsd_pairwise_std>  (33) 
0.3130013712875284

>  <rmsd_to_best_std>  (33) 
0.29585332394981806

>  <MWT>  (33) 
343.45599999999973

>  <TPSA>  (33) 
75.08

>  <logP>  (33) 
2.999200000000002

>  <HBD>  (33) 
2

>  <HBA>  (33) 
5

>  <SMILES>  (33) 
[H]c1c([H])c([H])c2c(c1[H])n([H])c1nnc(SC([H])([H])C(=O)N([H])C([H])([H])C3([H])C([H])([H])C([H])([H])C([H])([H])C([H])([H])C3([H])[H])n21

$$$$
Z16226228_pose1
     RDKit          3D

 45 48  0  0  0  0  0  0  0  0999 V2000
    4.8140   47.9970   54.5910 O   0  0  0  0  0  0  0  0  0  0  0  0
    4.5740   47.2960   53.6100 C   0  0  0  0  0  0  0  0  0  0  0  0
    3.1740   46.7950   53.2990 C   0  0  0  0  0  0  0  0  0  0  0  0
    3.0310   46.3370   51.5460 S   0  0  0  0  0  0  0  0  0  0  0  0
    2.7250   44.6460   51.6720 C   0  0  0  0  0  0  0  0  0  0  0  0
    1.6510   44.0700   52.1900 N   0  0  0  0  0  0  0  0  0  0  0  0
    1.7910   42.6840   52.0750 N   0  0  0  0  0  0  0  0  0  0  0  0
    2.9380   42.4820   51.4800 C   0  0  0  0  0  0  0  0  0  0  0  0
    3.7210   41.4640   51.0520 N   0  0  0  0  0  0  0  0  0  0  0  0
    4.9240   42.0550   50.6150 C   0  0  0  0  0  0  0  0  0  0  0  0
    6.0460   41.4750   50.0770 C   0  0  0  0  0  0  0  0  0  0  0  0
    7.0710   42.3320   49.6500 C   0  0  0  0  0  0  0  0  0  0  0  0
    6.9500   43.7380   49.7500 C   0  0  0  0  0  0  0  0  0  0  0  0
    5.8010   44.3330   50.2740 C   0  0  0  0  0  0  0  0  0  0  0  0
    4.8160   43.4660   50.6810 C   0  0  0  0  0  0  0  0  0  0  0  0
    3.5660   43.6790   51.2410 N   0  0  0  0  0  0  0  0  0  0  0  0
    5.5400   46.8980   52.7120 N   0  0  0  0  0  0  0  0  0  0  0  0
    6.9380   47.2900   52.8280 C   0  0  0  0  0  0  0  0  0  0  0  0
    7.5310   46.8030   54.1580 C   0  0  0  0  0  0  0  0  0  0  0  0
    8.7620   47.5460   54.6690 C   0  0  0  0  0  0  0  0  0  0  0  0
   10.1020   47.1650   54.0420 C   0  0  0  0  0  0  0  0  0  0  0  0
   10.0130   46.4840   52.6780 C   0  0  0  0  0  0  0  0  0  0  0  0
    9.2070   47.2160   51.5960 C   0  0  0  0  0  0  0  0  0  0  0  0
    7.7150   46.8940   51.5580 C   0  0  0  0  0  0  0  0  0  0  0  0
    2.9592   45.9137   53.9213 H   0  0  0  0  0  0  0  0  0  0  0  0
    2.4545   47.5986   53.5147 H   0  0  0  0  0  0  0  0  0  0  0  0
    3.6810   40.5180   51.4030 H   0  0  0  0  0  0  0  0  0  0  0  0
    6.1374   40.3827   49.9846 H   0  0  0  0  0  0  0  0  0  0  0  0
    7.9905   41.9008   49.2275 H   0  0  0  0  0  0  0  0  0  0  0  0
    7.7785   44.3756   49.4078 H   0  0  0  0  0  0  0  0  0  0  0  0
    5.6914   45.4245   50.3557 H   0  0  0  0  0  0  0  0  0  0  0  0
    5.2700   46.2780   51.9480 H   0  0  0  0  0  0  0  0  0  0  0  0
    7.0279   48.3852   52.8771 H   0  0  0  0  0  0  0  0  0  0  0  0
    6.7469   46.8891   54.9246 H   0  0  0  0  0  0  0  0  0  0  0  0
    7.8716   45.7750   53.9650 H   0  0  0  0  0  0  0  0  0  0  0  0
    8.6025   48.6193   54.4884 H   0  0  0  0  0  0  0  0  0  0  0  0
    8.8490   47.2669   55.7294 H   0  0  0  0  0  0  0  0  0  0  0  0
   10.6962   48.0833   53.9254 H   0  0  0  0  0  0  0  0  0  0  0  0
   10.5577   46.4290   54.7208 H   0  0  0  0  0  0  0  0  0  0  0  0
   11.0385   46.3562   52.3012 H   0  0  0  0  0  0  0  0  0  0  0  0
    9.4706   45.5441   52.8578 H   0  0  0  0  0  0  0  0  0  0  0  0
    9.3162   48.2974   51.7653 H   0  0  0  0  0  0  0  0  0  0  0  0
    9.6145   46.8749   50.6329 H   0  0  0  0  0  0  0  0  0  0  0  0
    7.2711   47.4274   50.7045 H   0  0  0  0  0  0  0  0  0  0  0  0
    7.6355   45.8001   51.4738 H   0  0  0  0  0  0  0  0  0  0  0  0
  1  2  2  0
  2  3  1  0
  3  4  1  0
  4  5  1  0
  5  6  2  0
  6  7  1  0
  7  8  2  0
  8  9  1  0
  9 10  1  0
 10 11  2  0
 11 12  1  0
 12 13  2  0
 13 14  1  0
 14 15  2  0
 15 16  1  0
  2 17  1  0
 17 18  1  0
 18 19  1  0
 19 20  1  0
 20 21  1  0
 21 22  1  0
 22 23  1  0
 23 24  1  0
 16  5  1  0
 24 18  1  0
 16  8  1  0
 15 10  1  0
  3 25  1  0
  3 26  1  0
  9 27  1  0
 11 28  1  0
 12 29  1  0
 13 30  1  0
 14 31  1  0
 17 32  1  0
 18 33  1  0
 19 34  1  0
 19 35  1  0
 20 36  1  0
 20 37  1  0
 21 38  1  0
 21 39  1  0
 22 40  1  0
 22 41  1  0
 23 42  1  0
 23 43  1  0
 24 44  1  0
 24 45  1  0
M  END
>  <meeko>  (34) 
{"is_sidechain": false}

>  <CID>  (34) 
Z16226228

>  <pose_index>  (34) 
1

>  <docking_score>  (34) 
-7.298

>  <num_viable_poses>  (34) 
5

>  <rmsd_pairwise_std>  (34) 
0.34587617339028087

>  <rmsd_to_best_std>  (34) 
0.4864710664973516

>  <MWT>  (34) 
343.45599999999973

>  <TPSA>  (34) 
75.08

>  <logP>  (34) 
3.141700000000002

>  <HBD>  (34) 
2

>  <HBA>  (34) 
5

>  <SMILES>  (34) 
[H]c1c([H])c([H])c2c(c1[H])n([H])c1nnc(SC([H])([H])C(=O)N([H])C3([H])C([H])([H])C([H])([H])C([H])([H])C([H])([H])C([H])([H])C3([H])[H])n21

$$$$
Z1627224447_pose2
     RDKit          3D

 35 37  0  0  0  0  0  0  0  0999 V2000
    5.6411   45.6605   54.7898 O   0  0  0  0  0  0  0  0  0  0  0  0
    4.5207   45.6248   53.8749 S   0  0  0  0  0  0  0  0  0  0  0  0
    3.4919   44.6107   53.9641 O   0  0  0  0  0  0  0  0  0  0  0  0
    5.1519   45.6907   52.3017 N   0  0  0  0  0  0  0  0  0  0  0  0
    6.5383   46.0598   52.1820 C   0  0  0  0  0  0  0  0  0  0  0  0
    6.9060   47.4019   52.2378 C   0  0  0  0  0  0  0  0  0  0  0  0
    8.2435   47.7471   52.1025 C   0  0  0  0  0  0  0  0  0  0  0  0
    9.1633   46.7293   51.9101 C   0  0  0  0  0  0  0  0  0  0  0  0
    8.8396   45.4189   51.8526 N   0  0  0  0  0  0  0  0  0  0  0  0
    7.5383   45.0785   51.9935 C   0  0  0  0  0  0  0  0  0  0  0  0
    7.1298   43.7154   51.9647 N   0  0  0  0  0  0  0  0  0  0  0  0
    6.9075   42.8886   50.8392 C   0  0  0  0  0  0  0  0  0  0  0  0
    5.5867   42.6652   50.4170 C   0  0  0  0  0  0  0  0  0  0  0  0
    5.3104   41.9209   49.2677 C   0  0  0  0  0  0  0  0  0  0  0  0
    6.3549   41.4088   48.5023 C   0  0  0  0  0  0  0  0  0  0  0  0
    7.6705   41.6559   48.8818 C   0  0  0  0  0  0  0  0  0  0  0  0
    7.9426   42.4026   50.0335 C   0  0  0  0  0  0  0  0  0  0  0  0
    3.6890   47.1263   54.1984 C   0  0  0  0  0  0  0  0  0  0  0  0
    2.7264   47.7178   53.4075 C   0  0  0  0  0  0  0  0  0  0  0  0
    2.3822   48.8670   54.0614 N   0  0  0  0  0  0  0  0  0  0  0  0
    3.1289   48.9339   55.2069 C   0  0  0  0  0  0  0  0  0  0  0  0
    3.9313   47.8986   55.3290 N   0  0  0  0  0  0  0  0  0  0  0  0
    4.9478   44.8086   51.8202 H   0  0  0  0  0  0  0  0  0  0  0  0
    6.1439   48.1808   52.3877 H   0  0  0  0  0  0  0  0  0  0  0  0
    8.5639   48.7984   52.1468 H   0  0  0  0  0  0  0  0  0  0  0  0
   10.2222   47.0050   51.7971 H   0  0  0  0  0  0  0  0  0  0  0  0
    7.6748   43.2134   52.6743 H   0  0  0  0  0  0  0  0  0  0  0  0
    4.7547   43.0841   51.0020 H   0  0  0  0  0  0  0  0  0  0  0  0
    4.2679   41.7393   48.9674 H   0  0  0  0  0  0  0  0  0  0  0  0
    6.1411   40.8125   47.6030 H   0  0  0  0  0  0  0  0  0  0  0  0
    8.4993   41.2630   48.2745 H   0  0  0  0  0  0  0  0  0  0  0  0
    8.9868   42.6108   50.3096 H   0  0  0  0  0  0  0  0  0  0  0  0
    2.3225   47.3446   52.4548 H   0  0  0  0  0  0  0  0  0  0  0  0
    1.7013   49.5520   53.7581 H   0  0  0  0  0  0  0  0  0  0  0  0
    3.0656   49.7542   55.9371 H   0  0  0  0  0  0  0  0  0  0  0  0
  1  2  2  0
  2  3  2  0
  2  4  1  0
  4  5  1  0
  5  6  2  0
  6  7  1  0
  7  8  2  0
  8  9  1  0
  9 10  2  0
 10 11  1  0
 11 12  1  0
 12 13  2  0
 13 14  1  0
 14 15  2  0
 15 16  1  0
 16 17  2  0
  2 18  1  0
 18 19  2  0
 19 20  1  0
 20 21  1  0
 21 22  2  0
 10  5  1  0
 17 12  1  0
 22 18  1  0
  4 23  1  0
  6 24  1  0
  7 25  1  0
  8 26  1  0
 11 27  1  0
 13 28  1  0
 14 29  1  0
 15 30  1  0
 16 31  1  0
 17 32  1  0
 19 33  1  0
 20 34  1  0
 21 35  1  0
M  END
>  <meeko>  (35) 
{"is_sidechain": false}

>  <CID>  (35) 
Z1627224447

>  <pose_index>  (35) 
2

>  <docking_score>  (35) 
-8.605

>  <num_viable_poses>  (35) 
5

>  <rmsd_pairwise_std>  (35) 
0.43962509987552034

>  <rmsd_to_best_std>  (35) 
0.6070320216178448

>  <MWT>  (35) 
315.3579999999998

>  <TPSA>  (35) 
99.77

>  <logP>  (35) 
2.3491

>  <HBD>  (35) 
3

>  <HBA>  (35) 
5

>  <SMILES>  (35) 
[H]c1nc(N([H])c2c([H])c([H])c([H])c([H])c2[H])c(N([H])S(=O)(=O)c2nc([H])n([H])c2[H])c([H])c1[H]

$$$$
Z1646104587_pose1
     RDKit          3D

 49 52  0  0  0  0  0  0  0  0999 V2000
    5.8800   44.5310   54.8210 C   0  0  0  0  0  0  0  0  0  0  0  0
    5.8260   45.8560   54.2590 N   0  0  0  0  0  0  0  0  0  0  0  0
    4.7340   46.6960   54.2680 C   0  0  0  0  0  0  0  0  0  0  0  0
    3.4090   46.4000   54.8750 C   0  0  0  0  0  0  0  0  0  0  0  0
    2.4270   46.1740   53.8530 O   0  0  0  0  0  0  0  0  0  0  0  0
    1.4150   45.2750   54.0770 C   0  0  0  0  0  0  0  0  0  0  0  0
    0.5360   45.3540   55.1650 C   0  0  0  0  0  0  0  0  0  0  0  0
   -0.4710   44.3990   55.3370 C   0  0  0  0  0  0  0  0  0  0  0  0
   -0.6120   43.3550   54.4300 C   0  0  0  0  0  0  0  0  0  0  0  0
    0.2530   43.2650   53.3420 C   0  0  0  0  0  0  0  0  0  0  0  0
    1.2640   44.2230   53.1480 C   0  0  0  0  0  0  0  0  0  0  0  0
    2.1660   44.0180   51.9670 C   0  0  0  0  0  0  0  0  0  0  0  0
    1.6860   44.1250   50.8430 O   0  0  0  0  0  0  0  0  0  0  0  0
    3.4850   43.7300   52.2610 N   0  0  0  0  0  0  0  0  0  0  0  0
    4.5350   43.4450   51.3690 C   0  0  0  0  0  0  0  0  0  0  0  0
    4.6160   42.1360   50.8770 C   0  0  0  0  0  0  0  0  0  0  0  0
    5.6220   41.7720   49.9770 C   0  0  0  0  0  0  0  0  0  0  0  0
    6.5570   42.7150   49.5610 C   0  0  0  0  0  0  0  0  0  0  0  0
    6.4850   44.0190   50.0470 C   0  0  0  0  0  0  0  0  0  0  0  0
    5.4790   44.3830   50.9470 C   0  0  0  0  0  0  0  0  0  0  0  0
    5.0510   47.8110   53.6440 N   0  0  0  0  0  0  0  0  0  0  0  0
    6.3570   47.7220   53.2520 N   0  0  0  0  0  0  0  0  0  0  0  0
    6.8300   46.5540   53.6360 C   0  0  0  0  0  0  0  0  0  0  0  0
    8.3140   46.1750   53.3580 C   0  0  0  0  0  0  0  0  0  0  0  0
    9.3900   47.1520   53.8780 C   0  0  0  0  0  0  0  0  0  0  0  0
   10.2060   46.8120   52.6120 C   0  0  0  0  0  0  0  0  0  0  0  0
    8.8780   46.4020   51.9400 C   0  0  0  0  0  0  0  0  0  0  0  0
    5.8773   44.5980   55.9190 H   0  0  0  0  0  0  0  0  0  0  0  0
    5.0046   43.9549   54.4866 H   0  0  0  0  0  0  0  0  0  0  0  0
    6.7994   44.0281   54.4866 H   0  0  0  0  0  0  0  0  0  0  0  0
    3.4914   45.5007   55.5031 H   0  0  0  0  0  0  0  0  0  0  0  0
    3.0966   47.2609   55.4843 H   0  0  0  0  0  0  0  0  0  0  0  0
    0.6388   46.1745   55.8904 H   0  0  0  0  0  0  0  0  0  0  0  0
   -1.1554   44.4743   56.1949 H   0  0  0  0  0  0  0  0  0  0  0  0
   -1.4029   42.6036   54.5709 H   0  0  0  0  0  0  0  0  0  0  0  0
    0.1442   42.4360   52.6272 H   0  0  0  0  0  0  0  0  0  0  0  0
    3.7130   43.6890   53.2500 H   0  0  0  0  0  0  0  0  0  0  0  0
    3.8799   41.3861   51.2024 H   0  0  0  0  0  0  0  0  0  0  0  0
    5.6744   40.7407   49.5979 H   0  0  0  0  0  0  0  0  0  0  0  0
    7.3491   42.4324   48.8520 H   0  0  0  0  0  0  0  0  0  0  0  0
    7.2237   44.7660   49.7208 H   0  0  0  0  0  0  0  0  0  0  0  0
    5.4310   45.4149   51.3250 H   0  0  0  0  0  0  0  0  0  0  0  0
    8.2053   45.1567   53.7596 H   0  0  0  0  0  0  0  0  0  0  0  0
    9.0641   48.2003   53.9469 H   0  0  0  0  0  0  0  0  0  0  0  0
    9.8186   47.0599   54.8868 H   0  0  0  0  0  0  0  0  0  0  0  0
   10.7082   47.6727   52.1462 H   0  0  0  0  0  0  0  0  0  0  0  0
   11.0684   46.1301   52.6480 H   0  0  0  0  0  0  0  0  0  0  0  0
    8.3838   47.2039   51.3720 H   0  0  0  0  0  0  0  0  0  0  0  0
    8.8361   45.6204   51.1671 H   0  0  0  0  0  0  0  0  0  0  0  0
  1  2  1  0
  2  3  1  0
  3  4  1  0
  4  5  1  0
  5  6  1  0
  6  7  2  0
  7  8  1  0
  8  9  2  0
  9 10  1  0
 10 11  2  0
 11 12  1  0
 12 13  2  0
 12 14  1  0
 14 15  1  0
 15 16  2  0
 16 17  1  0
 17 18  2  0
 18 19  1  0
 19 20  2  0
  3 21  2  0
 21 22  1  0
 22 23  2  0
 23 24  1  0
 24 25  1  0
 25 26  1  0
 26 27  1  0
 23  2  1  0
 27 24  1  0
 11  6  1  0
 20 15  1  0
  1 28  1  0
  1 29  1  0
  1 30  1  0
  4 31  1  0
  4 32  1  0
  7 33  1  0
  8 34  1  0
  9 35  1  0
 10 36  1  0
 14 37  1  0
 16 38  1  0
 17 39  1  0
 18 40  1  0
 19 41  1  0
 20 42  1  0
 24 43  1  0
 25 44  1  0
 25 45  1  0
 26 46  1  0
 26 47  1  0
 27 48  1  0
 27 49  1  0
M  END
>  <meeko>  (36) 
{"is_sidechain": false}

>  <CID>  (36) 
Z1646104587

>  <pose_index>  (36) 
1

>  <docking_score>  (36) 
-9.478

>  <num_viable_poses>  (36) 
5

>  <rmsd_pairwise_std>  (36) 
0.3293773691252748

>  <rmsd_to_best_std>  (36) 
0.2974220144979254

>  <MWT>  (36) 
362.43299999999965

>  <TPSA>  (36) 
69.03999999999999

>  <logP>  (36) 
3.9139000000000026

>  <HBD>  (36) 
1

>  <HBA>  (36) 
5

>  <SMILES>  (36) 
[H]c1c([H])c([H])c(N([H])C(=O)c2c([H])c([H])c([H])c([H])c2OC([H])([H])c2nnc(C3([H])C([H])([H])C([H])([H])C3([H])[H])n2C([H])([H])[H])c([H])c1[H]

$$$$
Z1657740785_pose1
     RDKit          3D

 44 47  0  0  0  0  0  0  0  0999 V2000
    2.8710   43.7200   53.0760 O   0  0  0  0  0  0  0  0  0  0  0  0
    2.6200   44.7570   53.6770 C   0  0  0  0  0  0  0  0  0  0  0  0
    3.3180   45.9380   53.6270 N   0  0  0  0  0  0  0  0  0  0  0  0
    4.4670   46.1420   52.9200 C   0  0  0  0  0  0  0  0  0  0  0  0
    4.7040   45.6790   51.6610 N   0  0  0  0  0  0  0  0  0  0  0  0
    5.9160   46.1050   51.3970 C   0  0  0  0  0  0  0  0  0  0  0  0
    6.3880   46.7980   52.4660 N   0  0  0  0  0  0  0  0  0  0  0  0
    7.6880   47.4410   52.5980 C   0  0  0  0  0  0  0  0  0  0  0  0
    8.3810   47.0220   53.9080 C   0  0  0  0  0  0  0  0  0  0  0  0
    9.8820   47.2700   53.8440 C   0  0  0  0  0  0  0  0  0  0  0  0
   10.5470   46.4560   52.7320 C   0  0  0  0  0  0  0  0  0  0  0  0
    9.6190   46.1470   51.5550 C   0  0  0  0  0  0  0  0  0  0  0  0
    8.5720   47.2390   51.3520 C   0  0  0  0  0  0  0  0  0  0  0  0
    5.4760   46.8350   53.4570 N   0  0  0  0  0  0  0  0  0  0  0  0
    1.4020   44.7840   54.5380 C   0  0  0  0  0  0  0  0  0  0  0  0
    0.3190   43.9710   54.1830 C   0  0  0  0  0  0  0  0  0  0  0  0
   -0.8390   43.9680   54.9590 C   0  0  0  0  0  0  0  0  0  0  0  0
   -0.9210   44.7700   56.1000 C   0  0  0  0  0  0  0  0  0  0  0  0
    0.1600   45.5760   56.4860 C   0  0  0  0  0  0  0  0  0  0  0  0
    0.1240   46.4250   57.6800 C   0  0  0  0  0  0  0  0  0  0  0  0
   -0.9440   46.9880   58.2130 N   0  0  0  0  0  0  0  0  0  0  0  0
   -0.4530   47.6680   59.2900 C   0  0  0  0  0  0  0  0  0  0  0  0
    0.8640   47.5700   59.4670 N   0  0  0  0  0  0  0  0  0  0  0  0
    1.2100   46.7860   58.4340 N   0  0  0  0  0  0  0  0  0  0  0  0
    1.3220   45.5720   55.6940 C   0  0  0  0  0  0  0  0  0  0  0  0
    2.9840   46.7750   54.0770 H   0  0  0  0  0  0  0  0  0  0  0  0
    6.4633   45.9292   50.4592 H   0  0  0  0  0  0  0  0  0  0  0  0
    7.5197   48.5263   52.6604 H   0  0  0  0  0  0  0  0  0  0  0  0
    7.9569   47.6038   54.7397 H   0  0  0  0  0  0  0  0  0  0  0  0
    8.2132   45.9456   54.0605 H   0  0  0  0  0  0  0  0  0  0  0  0
   10.0582   48.3394   53.6561 H   0  0  0  0  0  0  0  0  0  0  0  0
   10.3205   46.9589   54.8036 H   0  0  0  0  0  0  0  0  0  0  0  0
   11.4094   47.0246   52.3540 H   0  0  0  0  0  0  0  0  0  0  0  0
   10.8397   45.4912   53.1718 H   0  0  0  0  0  0  0  0  0  0  0  0
   10.2229   46.0592   50.6398 H   0  0  0  0  0  0  0  0  0  0  0  0
    9.0920   45.2069   51.7749 H   0  0  0  0  0  0  0  0  0  0  0  0
    9.0865   48.1847   51.1263 H   0  0  0  0  0  0  0  0  0  0  0  0
    7.9189   46.9289   50.5229 H   0  0  0  0  0  0  0  0  0  0  0  0
    0.3820   43.3328   53.2893 H   0  0  0  0  0  0  0  0  0  0  0  0
   -1.6901   43.3328   54.6724 H   0  0  0  0  0  0  0  0  0  0  0  0
   -1.8421   44.7693   56.7013 H   0  0  0  0  0  0  0  0  0  0  0  0
   -1.0972   48.2537   59.9623 H   0  0  0  0  0  0  0  0  0  0  0  0
    2.1850   46.5480   58.3020 H   0  0  0  0  0  0  0  0  0  0  0  0
    2.1797   46.1958   55.9858 H   0  0  0  0  0  0  0  0  0  0  0  0
  1  2  2  0
  2  3  1  0
  3  4  1  0
  4  5  1  0
  5  6  2  0
  6  7  1  0
  7  8  1  0
  8  9  1  0
  9 10  1  0
 10 11  1  0
 11 12  1  0
 12 13  1  0
  7 14  1  0
  2 15  1  0
 15 16  2  0
 16 17  1  0
 17 18  2  0
 18 19  1  0
 19 20  1  0
 20 21  2  0
 21 22  1  0
 22 23  2  0
 23 24  1  0
 19 25  2  0
 14  4  2  0
 25 15  1  0
 13  8  1  0
 24 20  1  0
  3 26  1  0
  6 27  1  0
  8 28  1  0
  9 29  1  0
  9 30  1  0
 10 31  1  0
 10 32  1  0
 11 33  1  0
 11 34  1  0
 12 35  1  0
 12 36  1  0
 13 37  1  0
 13 38  1  0
 16 39  1  0
 17 40  1  0
 18 41  1  0
 22 42  1  0
 24 43  1  0
 25 44  1  0
M  END
>  <meeko>  (37) 
{"is_sidechain": false}

>  <CID>  (37) 
Z1657740785

>  <pose_index>  (37) 
1

>  <docking_score>  (37) 
-9.276

>  <num_viable_poses>  (37) 
6

>  <rmsd_pairwise_std>  (37) 
0.44443979811627937

>  <rmsd_to_best_std>  (37) 
0.33260914731606467

>  <MWT>  (37) 
337.38699999999966

>  <TPSA>  (37) 
101.38

>  <logP>  (37) 
2.8207000000000004

>  <HBD>  (37) 
2

>  <HBA>  (37) 
6

>  <SMILES>  (37) 
[H]c1nc(-c2c([H])c([H])c([H])c(C(=O)N([H])c3nc([H])n(C4([H])C([H])([H])C([H])([H])C([H])([H])C([H])([H])C4([H])[H])n3)c2[H])n([H])n1

$$$$
Z1657744734_pose2
     RDKit          3D

 41 44  0  0  0  0  0  0  0  0999 V2000
    2.9146   46.4902   52.0917 O   0  0  0  0  0  0  0  0  0  0  0  0
    3.3308   45.5493   52.7551 C   0  0  0  0  0  0  0  0  0  0  0  0
    4.6126   45.0741   52.8445 N   0  0  0  0  0  0  0  0  0  0  0  0
    5.6641   45.5108   52.0927 C   0  0  0  0  0  0  0  0  0  0  0  0
    5.9360   45.1048   50.8228 N   0  0  0  0  0  0  0  0  0  0  0  0
    7.0309   45.7599   50.5196 C   0  0  0  0  0  0  0  0  0  0  0  0
    7.4075   46.5235   51.5804 N   0  0  0  0  0  0  0  0  0  0  0  0
    8.5697   47.3989   51.6581 C   0  0  0  0  0  0  0  0  0  0  0  0
    9.8718   46.6811   51.2670 C   0  0  0  0  0  0  0  0  0  0  0  0
   10.4883   45.8656   52.4014 C   0  0  0  0  0  0  0  0  0  0  0  0
   10.6545   46.6981   53.6666 C   0  0  0  0  0  0  0  0  0  0  0  0
    9.3329   47.3112   54.1139 C   0  0  0  0  0  0  0  0  0  0  0  0
    8.6822   48.1372   53.0030 C   0  0  0  0  0  0  0  0  0  0  0  0
    6.5533   46.3642   52.6079 N   0  0  0  0  0  0  0  0  0  0  0  0
    2.3689   44.8235   53.6125 C   0  0  0  0  0  0  0  0  0  0  0  0
    2.6578   44.6140   54.9690 C   0  0  0  0  0  0  0  0  0  0  0  0
    1.7708   43.9149   55.7890 C   0  0  0  0  0  0  0  0  0  0  0  0
    0.5656   43.4167   55.2814 C   0  0  0  0  0  0  0  0  0  0  0  0
    0.2474   43.6470   53.9297 C   0  0  0  0  0  0  0  0  0  0  0  0
   -0.8320   43.3422   53.0712 C   0  0  0  0  0  0  0  0  0  0  0  0
   -0.6582   43.8145   51.8346 N   0  0  0  0  0  0  0  0  0  0  0  0
    0.5219   44.4574   51.9085 N   0  0  0  0  0  0  0  0  0  0  0  0
    1.1419   44.3484   53.1276 C   0  0  0  0  0  0  0  0  0  0  0  0
    4.8815   44.4183   53.5590 H   0  0  0  0  0  0  0  0  0  0  0  0
    7.5617   45.7011   49.5579 H   0  0  0  0  0  0  0  0  0  0  0  0
    8.4065   48.1822   50.9032 H   0  0  0  0  0  0  0  0  0  0  0  0
    9.6557   46.0022   50.4289 H   0  0  0  0  0  0  0  0  0  0  0  0
   10.6003   47.4605   50.9988 H   0  0  0  0  0  0  0  0  0  0  0  0
    9.8341   45.0091   52.6214 H   0  0  0  0  0  0  0  0  0  0  0  0
   11.4844   45.5277   52.0794 H   0  0  0  0  0  0  0  0  0  0  0  0
   11.0385   46.0527   54.4704 H   0  0  0  0  0  0  0  0  0  0  0  0
   11.3568   47.5164   53.4496 H   0  0  0  0  0  0  0  0  0  0  0  0
    8.6461   46.5027   54.4046 H   0  0  0  0  0  0  0  0  0  0  0  0
    9.5378   47.9816   54.9616 H   0  0  0  0  0  0  0  0  0  0  0  0
    7.6699   48.4185   53.3288 H   0  0  0  0  0  0  0  0  0  0  0  0
    9.3306   49.0096   52.8337 H   0  0  0  0  0  0  0  0  0  0  0  0
    3.5950   45.0053   55.3917 H   0  0  0  0  0  0  0  0  0  0  0  0
    2.0222   43.7536   56.8477 H   0  0  0  0  0  0  0  0  0  0  0  0
   -0.1226   42.8536   55.9289 H   0  0  0  0  0  0  0  0  0  0  0  0
   -1.7207   42.7764   53.3876 H   0  0  0  0  0  0  0  0  0  0  0  0
    0.8496   44.9556   51.0870 H   0  0  0  0  0  0  0  0  0  0  0  0
  1  2  2  0
  2  3  1  0
  3  4  1  0
  4  5  1  0
  5  6  2  0
  6  7  1  0
  7  8  1  0
  8  9  1  0
  9 10  1  0
 10 11  1  0
 11 12  1  0
 12 13  1  0
  7 14  1  0
  2 15  1  0
 15 16  2  0
 16 17  1  0
 17 18  2  0
 18 19  1  0
 19 20  1  0
 20 21  2  0
 21 22  1  0
 22 23  1  0
 14  4  2  0
 23 15  1  0
 13  8  1  0
 23 19  2  0
  3 24  1  0
  6 25  1  0
  8 26  1  0
  9 27  1  0
  9 28  1  0
 10 29  1  0
 10 30  1  0
 11 31  1  0
 11 32  1  0
 12 33  1  0
 12 34  1  0
 13 35  1  0
 13 36  1  0
 16 37  1  0
 17 38  1  0
 18 39  1  0
 20 40  1  0
 22 41  1  0
M  END
>  <meeko>  (38) 
{"is_sidechain": false}

>  <CID>  (38) 
Z1657744734

>  <pose_index>  (38) 
2

>  <docking_score>  (38) 
-9.052

>  <num_viable_poses>  (38) 
5

>  <rmsd_pairwise_std>  (38) 
0.3387614684527828

>  <rmsd_to_best_std>  (38) 
0.234982451166159

>  <MWT>  (38) 
310.36099999999965

>  <TPSA>  (38) 
88.49000000000001

>  <logP>  (38) 
2.911900000000001

>  <HBD>  (38) 
2

>  <HBA>  (38) 
5

>  <SMILES>  (38) 
[H]c1c([H])c(C(=O)N([H])c2nc([H])n(C3([H])C([H])([H])C([H])([H])C([H])([H])C([H])([H])C3([H])[H])n2)c2c(c([H])nn2[H])c1[H]

$$$$
Z1673780356_pose1
     RDKit          3D

 42 44  0  0  0  0  0  0  0  0999 V2000
    5.8670   46.2950   54.8710 O   0  0  0  0  0  0  0  0  0  0  0  0
    6.1540   46.7890   53.7840 C   0  0  0  0  0  0  0  0  0  0  0  0
    5.2100   47.3870   52.9860 N   0  0  0  0  0  0  0  0  0  0  0  0
    3.8800   47.6560   53.4730 C   0  0  0  0  0  0  0  0  0  0  0  0
    2.9450   46.7150   52.8240 C   0  0  0  0  0  0  0  0  0  0  0  0
    2.7990   46.2410   51.5430 C   0  0  0  0  0  0  0  0  0  0  0  0
    1.6870   45.3860   51.6220 C   0  0  0  0  0  0  0  0  0  0  0  0
    1.1780   45.3340   52.8560 N   0  0  0  0  0  0  0  0  0  0  0  0
    1.9770   46.1730   53.6160 O   0  0  0  0  0  0  0  0  0  0  0  0
    7.5670   46.7470   53.2750 C   0  0  0  0  0  0  0  0  0  0  0  0
    8.5690   46.9810   54.2380 C   0  0  0  0  0  0  0  0  0  0  0  0
    9.9160   46.9610   53.8860 C   0  0  0  0  0  0  0  0  0  0  0  0
   10.2740   46.7100   52.5690 C   0  0  0  0  0  0  0  0  0  0  0  0
    9.2910   46.4830   51.6010 C   0  0  0  0  0  0  0  0  0  0  0  0
    7.9310   46.5020   51.9300 C   0  0  0  0  0  0  0  0  0  0  0  0
    6.9150   46.3060   51.0410 O   0  0  0  0  0  0  0  0  0  0  0  0
    6.5610   45.0600   50.4360 C   0  0  0  0  0  0  0  0  0  0  0  0
    5.7200   44.1460   51.3350 C   0  0  0  0  0  0  0  0  0  0  0  0
    5.2970   42.8750   50.6020 C   0  0  0  0  0  0  0  0  0  0  0  0
    6.4870   42.1660   49.9630 C   0  0  0  0  0  0  0  0  0  0  0  0
    7.2450   43.0860   49.0100 C   0  0  0  0  0  0  0  0  0  0  0  0
    7.7150   44.3610   49.7080 C   0  0  0  0  0  0  0  0  0  0  0  0
    5.5510   47.9340   52.2020 H   0  0  0  0  0  0  0  0  0  0  0  0
    3.8489   47.5171   54.5638 H   0  0  0  0  0  0  0  0  0  0  0  0
    3.5951   48.6924   53.2392 H   0  0  0  0  0  0  0  0  0  0  0  0
    3.4110   46.4764   50.6598 H   0  0  0  0  0  0  0  0  0  0  0  0
    1.2824   44.8245   50.7670 H   0  0  0  0  0  0  0  0  0  0  0  0
    8.2833   47.1820   55.2811 H   0  0  0  0  0  0  0  0  0  0  0  0
   10.6903   47.1427   54.6459 H   0  0  0  0  0  0  0  0  0  0  0  0
   11.3366   46.6895   52.2852 H   0  0  0  0  0  0  0  0  0  0  0  0
    9.5923   46.2858   50.5616 H   0  0  0  0  0  0  0  0  0  0  0  0
    5.8735   45.3347   49.6225 H   0  0  0  0  0  0  0  0  0  0  0  0
    6.3142   43.8683   52.2181 H   0  0  0  0  0  0  0  0  0  0  0  0
    4.8121   44.6926   51.6298 H   0  0  0  0  0  0  0  0  0  0  0  0
    4.8195   42.1921   51.3201 H   0  0  0  0  0  0  0  0  0  0  0  0
    4.5983   43.1589   49.8013 H   0  0  0  0  0  0  0  0  0  0  0  0
    7.1716   41.8322   50.7566 H   0  0  0  0  0  0  0  0  0  0  0  0
    6.1074   41.3103   49.3853 H   0  0  0  0  0  0  0  0  0  0  0  0
    8.1223   42.5496   48.6194 H   0  0  0  0  0  0  0  0  0  0  0  0
    6.5630   43.3728   48.1960 H   0  0  0  0  0  0  0  0  0  0  0  0
    8.4945   44.1016   50.4396 H   0  0  0  0  0  0  0  0  0  0  0  0
    8.1084   45.0480   48.9443 H   0  0  0  0  0  0  0  0  0  0  0  0
  1  2  2  0
  2  3  1  0
  3  4  1  0
  4  5  1  0
  5  6  2  0
  6  7  1  0
  7  8  2  0
  8  9  1  0
  2 10  1  0
 10 11  2  0
 11 12  1  0
 12 13  2  0
 13 14  1  0
 14 15  2  0
 15 16  1  0
 16 17  1  0
 17 18  1  0
 18 19  1  0
 19 20  1  0
 20 21  1  0
 21 22  1  0
  9  5  1  0
 15 10  1  0
 22 17  1  0
  3 23  1  0
  4 24  1  0
  4 25  1  0
  6 26  1  0
  7 27  1  0
 11 28  1  0
 12 29  1  0
 13 30  1  0
 14 31  1  0
 17 32  1  0
 18 33  1  0
 18 34  1  0
 19 35  1  0
 19 36  1  0
 20 37  1  0
 20 38  1  0
 21 39  1  0
 21 40  1  0
 22 41  1  0
 22 42  1  0
M  END
>  <meeko>  (39) 
{"is_sidechain": false}

>  <CID>  (39) 
Z1673780356

>  <pose_index>  (39) 
1

>  <docking_score>  (39) 
-9.033

>  <num_viable_poses>  (39) 
5

>  <rmsd_pairwise_std>  (39) 
0.21348151801299864

>  <rmsd_to_best_std>  (39) 
0.3023256666572177

>  <MWT>  (39) 
300.3579999999996

>  <TPSA>  (39) 
64.36

>  <logP>  (39) 
3.3161000000000023

>  <HBD>  (39) 
1

>  <HBA>  (39) 
4

>  <SMILES>  (39) 
[H]c1noc(C([H])([H])N([H])C(=O)c2c([H])c([H])c([H])c([H])c2OC2([H])C([H])([H])C([H])([H])C([H])([H])C([H])([H])C2([H])[H])c1[H]

$$$$
Z1677967961_pose1
     RDKit          3D

 46 49  0  0  0  0  0  0  0  0999 V2000
    5.5150   47.7540   53.8420 O   0  0  0  0  0  0  0  0  0  0  0  0
    6.1160   46.6830   53.7950 C   0  0  0  0  0  0  0  0  0  0  0  0
    5.6010   45.4600   54.1360 N   0  0  0  0  0  0  0  0  0  0  0  0
    4.3320   45.2020   54.5610 C   0  0  0  0  0  0  0  0  0  0  0  0
    3.8030   45.3970   55.7700 N   0  0  0  0  0  0  0  0  0  0  0  0
    2.5470   44.9700   55.5980 N   0  0  0  0  0  0  0  0  0  0  0  0
    2.3430   44.5450   54.3210 C   0  0  0  0  0  0  0  0  0  0  0  0
    1.0070   43.9990   53.7590 C   0  0  0  0  0  0  0  0  0  0  0  0
    0.9630   42.4720   53.5010 C   0  0  0  0  0  0  0  0  0  0  0  0
    0.1590   42.7870   52.2220 C   0  0  0  0  0  0  0  0  0  0  0  0
    0.8280   44.1780   52.2310 C   0  0  0  0  0  0  0  0  0  0  0  0
    3.4590   44.6810   53.6420 N   0  0  0  0  0  0  0  0  0  0  0  0
    7.5470   46.6920   53.3130 C   0  0  0  0  0  0  0  0  0  0  0  0
    8.5120   47.1530   54.2290 C   0  0  0  0  0  0  0  0  0  0  0  0
    9.8630   47.2130   53.8870 C   0  0  0  0  0  0  0  0  0  0  0  0
   10.2720   46.8090   52.6220 C   0  0  0  0  0  0  0  0  0  0  0  0
    9.3340   46.3480   51.6980 C   0  0  0  0  0  0  0  0  0  0  0  0
    7.9700   46.2960   52.0250 C   0  0  0  0  0  0  0  0  0  0  0  0
    7.0240   45.8290   51.1510 O   0  0  0  0  0  0  0  0  0  0  0  0
    7.4600   44.9520   50.1120 C   0  0  0  0  0  0  0  0  0  0  0  0
    6.5100   43.7790   50.1090 C   0  0  0  0  0  0  0  0  0  0  0  0
    5.3520   43.8090   50.9020 C   0  0  0  0  0  0  0  0  0  0  0  0
    4.4910   42.7120   50.9380 C   0  0  0  0  0  0  0  0  0  0  0  0
    4.7900   41.5820   50.1870 C   0  0  0  0  0  0  0  0  0  0  0  0
    3.9670   40.5250   50.2270 F   0  0  0  0  0  0  0  0  0  0  0  0
    5.9340   41.5280   49.4000 C   0  0  0  0  0  0  0  0  0  0  0  0
    6.7970   42.6250   49.3630 C   0  0  0  0  0  0  0  0  0  0  0  0
    6.1780   44.6320   54.0810 H   0  0  0  0  0  0  0  0  0  0  0  0
    1.9010   45.0020   56.3780 H   0  0  0  0  0  0  0  0  0  0  0  0
    0.3410   44.4786   54.4914 H   0  0  0  0  0  0  0  0  0  0  0  0
    1.9442   42.0070   53.3245 H   0  0  0  0  0  0  0  0  0  0  0  0
    0.5950   41.7651   54.2592 H   0  0  0  0  0  0  0  0  0  0  0  0
    0.4127   42.1608   51.3540 H   0  0  0  0  0  0  0  0  0  0  0  0
   -0.9339   42.6692   52.1800 H   0  0  0  0  0  0  0  0  0  0  0  0
    1.7674   44.2401   51.6622 H   0  0  0  0  0  0  0  0  0  0  0  0
    0.3338   45.0630   51.8038 H   0  0  0  0  0  0  0  0  0  0  0  0
    8.1946   47.4717   55.2328 H   0  0  0  0  0  0  0  0  0  0  0  0
   10.6015   47.5786   54.6157 H   0  0  0  0  0  0  0  0  0  0  0  0
   11.3366   46.8527   52.3488 H   0  0  0  0  0  0  0  0  0  0  0  0
    9.6671   46.0215   50.7018 H   0  0  0  0  0  0  0  0  0  0  0  0
    7.4280   45.4685   49.1413 H   0  0  0  0  0  0  0  0  0  0  0  0
    8.4959   44.6224   50.2805 H   0  0  0  0  0  0  0  0  0  0  0  0
    5.1220   44.7037   51.4991 H   0  0  0  0  0  0  0  0  0  0  0  0
    3.5819   42.7414   51.5565 H   0  0  0  0  0  0  0  0  0  0  0  0
    6.1582   40.6270   48.8101 H   0  0  0  0  0  0  0  0  0  0  0  0
    7.7067   42.5847   48.7459 H   0  0  0  0  0  0  0  0  0  0  0  0
  1  2  2  0
  2  3  1  0
  3  4  1  0
  4  5  2  0
  5  6  1  0
  6  7  1  0
  7  8  1  0
  8  9  1  0
  9 10  1  0
 10 11  1  0
  7 12  2  0
  2 13  1  0
 13 14  2  0
 14 15  1  0
 15 16  2  0
 16 17  1  0
 17 18  2  0
 18 19  1  0
 19 20  1  0
 20 21  1  0
 21 22  2  0
 22 23  1  0
 23 24  2  0
 24 25  1  0
 24 26  1  0
 26 27  2  0
 12  4  1  0
 18 13  1  0
 27 21  1  0
 11  8  1  0
  3 28  1  0
  6 29  1  0
  8 30  1  0
  9 31  1  0
  9 32  1  0
 10 33  1  0
 10 34  1  0
 11 35  1  0
 11 36  1  0
 14 37  1  0
 15 38  1  0
 16 39  1  0
 17 40  1  0
 20 41  1  0
 20 42  1  0
 22 43  1  0
 23 44  1  0
 26 45  1  0
 27 46  1  0
M  END
>  <meeko>  (40) 
{"is_sidechain": false}

>  <CID>  (40) 
Z1677967961

>  <pose_index>  (40) 
1

>  <docking_score>  (40) 
-10.308

>  <num_viable_poses>  (40) 
5

>  <rmsd_pairwise_std>  (40) 
0.17462704681769198

>  <rmsd_to_best_std>  (40) 
0.08565879387874185

>  <MWT>  (40) 
366.39599999999973

>  <TPSA>  (40) 
79.9

>  <logP>  (40) 
4.042600000000003

>  <HBD>  (40) 
2

>  <HBA>  (40) 
4

>  <SMILES>  (40) 
[H]c1c([H])c([H])c(C(=O)N([H])c2nc(C3([H])C([H])([H])C([H])([H])C3([H])[H])n([H])n2)c(OC([H])([H])c2c([H])c([H])c(F)c([H])c2[H])c1[H]

$$$$
Z168978470_pose1
     RDKit          3D

 40 42  0  0  0  0  0  0  0  0999 V2000
    1.7190   43.1270   52.8350 C   0  0  0  0  0  0  0  0  0  0  0  0
    3.0380   43.6180   52.2410 C   0  0  0  0  0  0  0  0  0  0  0  0
    3.9000   42.4730   52.1390 O   0  0  0  0  0  0  0  0  0  0  0  0
    4.5480   42.2370   50.9590 C   0  0  0  0  0  0  0  0  0  0  0  0
    3.9770   41.2230   50.1840 C   0  0  0  0  0  0  0  0  0  0  0  0
    4.5290   40.8690   48.9510 C   0  0  0  0  0  0  0  0  0  0  0  0
    5.6620   41.5290   48.4850 C   0  0  0  0  0  0  0  0  0  0  0  0
    6.2390   42.5400   49.2510 C   0  0  0  0  0  0  0  0  0  0  0  0
    5.6840   42.8950   50.4860 C   0  0  0  0  0  0  0  0  0  0  0  0
    3.6120   44.7110   53.1300 C   0  0  0  0  0  0  0  0  0  0  0  0
    3.0700   44.8660   54.3390 N   0  0  0  0  0  0  0  0  0  0  0  0
    3.6000   45.8350   55.0650 C   0  0  0  0  0  0  0  0  0  0  0  0
    3.0790   46.0340   56.3270 N   0  0  0  0  0  0  0  0  0  0  0  0
    4.6130   46.6020   54.6950 N   0  0  0  0  0  0  0  0  0  0  0  0
    5.0970   46.3800   53.4760 C   0  0  0  0  0  0  0  0  0  0  0  0
    6.1590   47.2020   53.1040 N   0  0  0  0  0  0  0  0  0  0  0  0
    7.5260   46.9820   52.8960 C   0  0  0  0  0  0  0  0  0  0  0  0
    8.5330   47.4460   53.7470 C   0  0  0  0  0  0  0  0  0  0  0  0
    9.8850   47.2210   53.4640 C   0  0  0  0  0  0  0  0  0  0  0  0
   10.2550   46.5330   52.3120 C   0  0  0  0  0  0  0  0  0  0  0  0
    9.2720   46.0730   51.4430 C   0  0  0  0  0  0  0  0  0  0  0  0
    7.9220   46.3010   51.7310 C   0  0  0  0  0  0  0  0  0  0  0  0
    4.6360   45.4320   52.6710 N   0  0  0  0  0  0  0  0  0  0  0  0
    1.7803   43.1498   53.9331 H   0  0  0  0  0  0  0  0  0  0  0  0
    0.9001   43.7805   52.4998 H   0  0  0  0  0  0  0  0  0  0  0  0
    1.5268   42.0971   52.4998 H   0  0  0  0  0  0  0  0  0  0  0  0
    2.9120   44.0608   51.2420 H   0  0  0  0  0  0  0  0  0  0  0  0
    3.0824   40.6978   50.5498 H   0  0  0  0  0  0  0  0  0  0  0  0
    4.0694   40.0706   48.3498 H   0  0  0  0  0  0  0  0  0  0  0  0
    6.1009   41.2534   47.5147 H   0  0  0  0  0  0  0  0  0  0  0  0
    7.1350   43.0616   48.8834 H   0  0  0  0  0  0  0  0  0  0  0  0
    6.1444   43.6945   51.0850 H   0  0  0  0  0  0  0  0  0  0  0  0
    2.3690   45.3440   56.5320 H   0  0  0  0  0  0  0  0  0  0  0  0
    2.8360   47.0050   56.4630 H   0  0  0  0  0  0  0  0  0  0  0  0
    5.7990   48.0980   52.8120 H   0  0  0  0  0  0  0  0  0  0  0  0
    8.2574   47.9989   54.6571 H   0  0  0  0  0  0  0  0  0  0  0  0
   10.6581   47.5892   54.1545 H   0  0  0  0  0  0  0  0  0  0  0  0
   11.3176   46.3545   52.0907 H   0  0  0  0  0  0  0  0  0  0  0  0
    9.5556   45.5300   50.5294 H   0  0  0  0  0  0  0  0  0  0  0  0
    7.1539   45.9399   51.0313 H   0  0  0  0  0  0  0  0  0  0  0  0
  1  2  1  0
  2  3  1  0
  3  4  1  0
  4  5  2  0
  5  6  1  0
  6  7  2  0
  7  8  1  0
  8  9  2  0
  2 10  1  0
 10 11  2  0
 11 12  1  0
 12 13  1  0
 12 14  2  0
 14 15  1  0
 15 16  1  0
 16 17  1  0
 17 18  2  0
 18 19  1  0
 19 20  2  0
 20 21  1  0
 21 22  2  0
 15 23  2  0
  9  4  1  0
 23 10  1  0
 22 17  1  0
  1 24  1  0
  1 25  1  0
  1 26  1  0
  2 27  1  0
  5 28  1  0
  6 29  1  0
  7 30  1  0
  8 31  1  0
  9 32  1  0
 13 33  1  0
 13 34  1  0
 16 35  1  0
 18 36  1  0
 19 37  1  0
 20 38  1  0
 21 39  1  0
 22 40  1  0
M  END
>  <meeko>  (41) 
{"is_sidechain": false}

>  <CID>  (41) 
Z168978470

>  <pose_index>  (41) 
1

>  <docking_score>  (41) 
-9.16

>  <num_viable_poses>  (41) 
6

>  <rmsd_pairwise_std>  (41) 
0.43506600062945683

>  <rmsd_to_best_std>  (41) 
0.3753805717598523

>  <MWT>  (41) 
307.3569999999997

>  <TPSA>  (41) 
85.95

>  <logP>  (41) 
3.3374000000000006

>  <HBD>  (41) 
2

>  <HBA>  (41) 
6

>  <SMILES>  (41) 
[H]c1c([H])c([H])c(OC([H])(c2nc(N([H])[H])nc(N([H])c3c([H])c([H])c([H])c([H])c3[H])n2)C([H])([H])[H])c([H])c1[H]

$$$$
Z1822975975_pose1
     RDKit          3D

 55 58  0  0  0  0  0  0  0  0999 V2000
   11.2460   47.4800   56.4440 C   0  0  0  0  0  0  0  0  0  0  0  0
   10.1460   48.1630   55.8540 O   0  0  0  0  0  0  0  0  0  0  0  0
    9.5850   47.5910   54.7450 C   0  0  0  0  0  0  0  0  0  0  0  0
   10.2440   46.8020   53.8110 C   0  0  0  0  0  0  0  0  0  0  0  0
    9.5420   46.2940   52.7160 C   0  0  0  0  0  0  0  0  0  0  0  0
    8.1710   46.5630   52.5380 C   0  0  0  0  0  0  0  0  0  0  0  0
    7.5480   45.9810   51.3100 C   0  0  0  0  0  0  0  0  0  0  0  0
    7.8210   46.4410   50.2040 O   0  0  0  0  0  0  0  0  0  0  0  0
    6.6400   44.9670   51.4740 N   0  0  0  0  0  0  0  0  0  0  0  0
    5.9520   44.3580   50.3450 C   0  0  0  0  0  0  0  0  0  0  0  0
    6.8270   43.2980   49.6780 C   0  0  0  0  0  0  0  0  0  0  0  0
    4.6670   43.7630   50.8140 C   0  0  0  0  0  0  0  0  0  0  0  0
    3.5780   44.3470   51.2680 N   0  0  0  0  0  0  0  0  0  0  0  0
    2.7700   43.2740   51.5460 C   0  0  0  0  0  0  0  0  0  0  0  0
    1.4050   43.4480   52.1050 C   0  0  0  0  0  0  0  0  0  0  0  0
    1.2090   42.8450   53.4960 C   0  0  0  0  0  0  0  0  0  0  0  0
    0.0080   43.5820   54.0870 C   0  0  0  0  0  0  0  0  0  0  0  0
   -0.2420   44.7940   53.1910 C   0  0  0  0  0  0  0  0  0  0  0  0
    0.9920   44.9040   52.3060 C   0  0  0  0  0  0  0  0  0  0  0  0
    3.3140   42.0780   51.2830 N   0  0  0  0  0  0  0  0  0  0  0  0
    4.5800   42.4010   50.7910 O   0  0  0  0  0  0  0  0  0  0  0  0
    7.4930   47.3350   53.4970 C   0  0  0  0  0  0  0  0  0  0  0  0
    6.1460   47.5530   53.3240 O   0  0  0  0  0  0  0  0  0  0  0  0
    5.2950   47.2150   54.4270 C   0  0  0  0  0  0  0  0  0  0  0  0
    4.4820   45.9860   54.1350 C   0  0  0  0  0  0  0  0  0  0  0  0
    3.6530   45.3060   55.1950 C   0  0  0  0  0  0  0  0  0  0  0  0
    4.8820   44.6280   54.6480 C   0  0  0  0  0  0  0  0  0  0  0  0
    8.2190   47.8550   54.5820 C   0  0  0  0  0  0  0  0  0  0  0  0
   11.1641   47.5308   57.5398 H   0  0  0  0  0  0  0  0  0  0  0  0
   11.2384   46.4275   56.1242 H   0  0  0  0  0  0  0  0  0  0  0  0
   12.1859   47.9536   56.1242 H   0  0  0  0  0  0  0  0  0  0  0  0
   11.3140   46.5783   53.9333 H   0  0  0  0  0  0  0  0  0  0  0  0
   10.0699   45.6718   51.9783 H   0  0  0  0  0  0  0  0  0  0  0  0
    6.5060   44.5650   52.3990 H   0  0  0  0  0  0  0  0  0  0  0  0
    5.7405   45.1332   49.5938 H   0  0  0  0  0  0  0  0  0  0  0  0
    7.3252   42.6944   50.4510 H   0  0  0  0  0  0  0  0  0  0  0  0
    6.2002   42.6464   49.0514 H   0  0  0  0  0  0  0  0  0  0  0  0
    7.5855   43.7899   49.0514 H   0  0  0  0  0  0  0  0  0  0  0  0
    0.8046   42.9379   51.3374 H   0  0  0  0  0  0  0  0  0  0  0  0
    1.0025   41.7670   53.4234 H   0  0  0  0  0  0  0  0  0  0  0  0
    2.1070   42.9546   54.1217 H   0  0  0  0  0  0  0  0  0  0  0  0
   -0.8748   42.9258   54.0935 H   0  0  0  0  0  0  0  0  0  0  0  0
    0.2015   43.8886   55.1255 H   0  0  0  0  0  0  0  0  0  0  0  0
   -1.1426   44.6404   52.5783 H   0  0  0  0  0  0  0  0  0  0  0  0
   -0.4073   45.7095   53.7780 H   0  0  0  0  0  0  0  0  0  0  0  0
    0.7478   45.3814   51.3455 H   0  0  0  0  0  0  0  0  0  0  0  0
    1.7874   45.5219   52.7481 H   0  0  0  0  0  0  0  0  0  0  0  0
    5.9168   47.0301   55.3153 H   0  0  0  0  0  0  0  0  0  0  0  0
    4.6047   48.0535   54.6015 H   0  0  0  0  0  0  0  0  0  0  0  0
    4.2761   46.4144   53.1430 H   0  0  0  0  0  0  0  0  0  0  0  0
    3.6507   45.6937   56.2244 H   0  0  0  0  0  0  0  0  0  0  0  0
    2.5927   45.0312   55.2963 H   0  0  0  0  0  0  0  0  0  0  0  0
    5.7770   44.5201   55.2784 H   0  0  0  0  0  0  0  0  0  0  0  0
    5.0904   43.6524   54.1846 H   0  0  0  0  0  0  0  0  0  0  0  0
    7.7021   48.4846   55.3212 H   0  0  0  0  0  0  0  0  0  0  0  0
  1  2  1  0
  2  3  1  0
  3  4  2  0
  4  5  1  0
  5  6  2  0
  6  7  1  0
  7  8  2  0
  7  9  1  0
  9 10  1  0
 10 11  1  0
 10 12  1  0
 12 13  2  0
 13 14  1  0
 14 15  1  0
 15 16  1  0
 16 17  1  0
 17 18  1  0
 18 19  1  0
 14 20  2  0
 20 21  1  0
  6 22  1  0
 22 23  1  0
 23 24  1  0
 24 25  1  0
 25 26  1  0
 26 27  1  0
 22 28  2  0
 28  3  1  0
 21 12  1  0
 27 25  1  0
 19 15  1  0
  1 29  1  0
  1 30  1  0
  1 31  1  0
  4 32  1  0
  5 33  1  0
  9 34  1  0
 10 35  1  0
 11 36  1  0
 11 37  1  0
 11 38  1  0
 15 39  1  0
 16 40  1  0
 16 41  1  0
 17 42  1  0
 17 43  1  0
 18 44  1  0
 18 45  1  0
 19 46  1  0
 19 47  1  0
 24 48  1  0
 24 49  1  0
 25 50  1  0
 26 51  1  0
 26 52  1  0
 27 53  1  0
 27 54  1  0
 28 55  1  0
M  END
>  <meeko>  (42) 
{"is_sidechain": false}

>  <CID>  (42) 
Z1822975975

>  <pose_index>  (42) 
1

>  <docking_score>  (42) 
-8.127

>  <num_viable_poses>  (42) 
5

>  <rmsd_pairwise_std>  (42) 
0.28280344211133573

>  <rmsd_to_best_std>  (42) 
0.4287768671458491

>  <MWT>  (42) 
385.46399999999966

>  <TPSA>  (42) 
86.48

>  <logP>  (42) 
4.015600000000004

>  <HBD>  (42) 
1

>  <HBA>  (42) 
6

>  <SMILES>  (42) 
[H]c1c([H])c(C(=O)N([H])C([H])(c2nc(C3([H])C([H])([H])C([H])([H])C([H])([H])C3([H])[H])no2)C([H])([H])[H])c(OC([H])([H])C2([H])C([H])([H])C2([H])[H])c([H])c1OC([H])([H])[H]

$$$$
Z1833516258_pose1
     RDKit          3D

 38 41  0  0  0  0  0  0  0  0999 V2000
    7.7680   44.5180   49.4320 C   0  0  0  0  0  0  0  0  0  0  0  0
    7.7460   45.2980   50.6990 C   0  0  0  0  0  0  0  0  0  0  0  0
    8.9690   45.7220   51.2020 N   0  0  0  0  0  0  0  0  0  0  0  0
    8.7940   46.4460   52.2850 C   0  0  0  0  0  0  0  0  0  0  0  0
    9.9080   47.0670   53.0780 C   0  0  0  0  0  0  0  0  0  0  0  0
    9.7140   47.0240   54.5710 C   0  0  0  0  0  0  0  0  0  0  0  0
    9.4980   48.2970   55.3480 C   0  0  0  0  0  0  0  0  0  0  0  0
   10.7870   47.5370   55.4980 C   0  0  0  0  0  0  0  0  0  0  0  0
    7.1620   46.6640   52.7650 S   0  0  0  0  0  0  0  0  0  0  0  0
    6.6430   45.6870   51.4480 C   0  0  0  0  0  0  0  0  0  0  0  0
    5.2220   45.4310   51.2780 C   0  0  0  0  0  0  0  0  0  0  0  0
    4.5350   46.0410   50.4640 O   0  0  0  0  0  0  0  0  0  0  0  0
    4.7270   44.4650   52.1320 N   0  0  0  0  0  0  0  0  0  0  0  0
    3.4190   43.9460   52.2030 C   0  0  0  0  0  0  0  0  0  0  0  0
    2.7990   43.1570   51.2260 C   0  0  0  0  0  0  0  0  0  0  0  0
    1.4900   42.6900   51.4040 C   0  0  0  0  0  0  0  0  0  0  0  0
    0.7510   42.9860   52.5550 C   0  0  0  0  0  0  0  0  0  0  0  0
    1.3880   43.7690   53.5170 C   0  0  0  0  0  0  0  0  0  0  0  0
    0.9890   44.2460   54.7400 N   0  0  0  0  0  0  0  0  0  0  0  0
    2.0230   44.9660   55.2720 C   0  0  0  0  0  0  0  0  0  0  0  0
    3.0660   44.9870   54.4720 N   0  0  0  0  0  0  0  0  0  0  0  0
    2.6850   44.2470   53.3700 C   0  0  0  0  0  0  0  0  0  0  0  0
    7.7983   43.4431   49.6636 H   0  0  0  0  0  0  0  0  0  0  0  0
    6.8632   44.7418   48.8479 H   0  0  0  0  0  0  0  0  0  0  0  0
    8.6588   44.7925   48.8479 H   0  0  0  0  0  0  0  0  0  0  0  0
   10.8393   46.5334   52.8375 H   0  0  0  0  0  0  0  0  0  0  0  0
    9.9354   48.1303   52.7975 H   0  0  0  0  0  0  0  0  0  0  0  0
    9.1688   46.0748   54.4622 H   0  0  0  0  0  0  0  0  0  0  0  0
    9.4882   49.2650   54.8255 H   0  0  0  0  0  0  0  0  0  0  0  0
    8.7263   48.6629   56.0413 H   0  0  0  0  0  0  0  0  0  0  0  0
   11.7195   47.9491   55.0850 H   0  0  0  0  0  0  0  0  0  0  0  0
   11.3479   47.1171   56.3460 H   0  0  0  0  0  0  0  0  0  0  0  0
    5.3380   44.0990   52.8550 H   0  0  0  0  0  0  0  0  0  0  0  0
    3.3467   42.9006   50.3071 H   0  0  0  0  0  0  0  0  0  0  0  0
    1.0305   42.0736   50.6173 H   0  0  0  0  0  0  0  0  0  0  0  0
   -0.2773   42.6206   52.6934 H   0  0  0  0  0  0  0  0  0  0  0  0
    0.0900   44.0930   55.1730 H   0  0  0  0  0  0  0  0  0  0  0  0
    1.9864   45.4668   56.2507 H   0  0  0  0  0  0  0  0  0  0  0  0
  1  2  1  0
  2  3  1  0
  3  4  2  0
  4  5  1  0
  5  6  1  0
  6  7  1  0
  7  8  1  0
  4  9  1  0
  9 10  1  0
 10 11  1  0
 11 12  2  0
 11 13  1  0
 13 14  1  0
 14 15  2  0
 15 16  1  0
 16 17  2  0
 17 18  1  0
 18 19  1  0
 19 20  1  0
 20 21  2  0
 21 22  1  0
 10  2  2  0
 22 14  1  0
  8  6  1  0
 22 18  2  0
  1 23  1  0
  1 24  1  0
  1 25  1  0
  5 26  1  0
  5 27  1  0
  6 28  1  0
  7 29  1  0
  7 30  1  0
  8 31  1  0
  8 32  1  0
 13 33  1  0
 15 34  1  0
 16 35  1  0
 17 36  1  0
 19 37  1  0
 20 38  1  0
M  END
>  <meeko>  (43) 
{"is_sidechain": false}

>  <CID>  (43) 
Z1833516258

>  <pose_index>  (43) 
1

>  <docking_score>  (43) 
-8.259

>  <num_viable_poses>  (43) 
5

>  <rmsd_pairwise_std>  (43) 
0.3306321185977778

>  <rmsd_to_best_std>  (43) 
0.16819341347981473

>  <MWT>  (43) 
312.3979999999997

>  <TPSA>  (43) 
70.67

>  <logP>  (43) 
3.5326200000000005

>  <HBD>  (43) 
2

>  <HBA>  (43) 
4

>  <SMILES>  (43) 
[H]c1c([H])c([H])c2c(nc([H])n2[H])c1N([H])C(=O)c1sc(C([H])([H])C2([H])C([H])([H])C2([H])[H])nc1C([H])([H])[H]

$$$$
Z1883550081_pose2
     RDKit          3D

 39 42  0  0  0  0  0  0  0  0999 V2000
   10.3580   45.9533   53.1390 C   0  0  0  0  0  0  0  0  0  0  0  0
    8.9317   46.3431   53.3819 C   0  0  0  0  0  0  0  0  0  0  0  0
    7.9845   45.5129   52.8855 N   0  0  0  0  0  0  0  0  0  0  0  0
    6.6737   45.7860   53.1065 C   0  0  0  0  0  0  0  0  0  0  0  0
    5.7436   44.8956   52.5494 N   0  0  0  0  0  0  0  0  0  0  0  0
    5.6782   44.4230   51.2233 C   0  0  0  0  0  0  0  0  0  0  0  0
    6.7684   44.4188   50.3527 C   0  0  0  0  0  0  0  0  0  0  0  0
    6.6366   43.9653   49.0307 C   0  0  0  0  0  0  0  0  0  0  0  0
    5.4116   43.5136   48.5359 C   0  0  0  0  0  0  0  0  0  0  0  0
    5.2151   43.0548   47.2312 N   0  0  0  0  0  0  0  0  0  0  0  0
    5.4106   41.8331   46.5928 C   0  0  0  0  0  0  0  0  0  0  0  0
    6.3032   41.6769   45.6035 N   0  0  0  0  0  0  0  0  0  0  0  0
    6.4117   40.4549   45.0518 C   0  0  0  0  0  0  0  0  0  0  0  0
    5.6637   39.3755   45.4461 C   0  0  0  0  0  0  0  0  0  0  0  0
    4.7771   39.6258   46.4624 C   0  0  0  0  0  0  0  0  0  0  0  0
    4.6338   40.8320   47.0438 N   0  0  0  0  0  0  0  0  0  0  0  0
    4.3143   43.5427   49.4096 C   0  0  0  0  0  0  0  0  0  0  0  0
    4.4425   43.9962   50.7282 C   0  0  0  0  0  0  0  0  0  0  0  0
    6.3527   46.9547   53.8152 C   0  0  0  0  0  0  0  0  0  0  0  0
    5.1697   47.6450   54.2109 C   0  0  0  0  0  0  0  0  0  0  0  0
    5.5503   48.7737   54.9068 C   0  0  0  0  0  0  0  0  0  0  0  0
    6.9212   48.7987   54.9384 N   0  0  0  0  0  0  0  0  0  0  0  0
    7.4191   47.7131   54.2711 C   0  0  0  0  0  0  0  0  0  0  0  0
    8.7238   47.4592   54.1045 N   0  0  0  0  0  0  0  0  0  0  0  0
   11.0030   46.8380   53.2447 H   0  0  0  0  0  0  0  0  0  0  0  0
   10.6594   45.1902   53.8717 H   0  0  0  0  0  0  0  0  0  0  0  0
   10.4586   45.5455   52.1224 H   0  0  0  0  0  0  0  0  0  0  0  0
    4.8273   45.2028   52.8652 H   0  0  0  0  0  0  0  0  0  0  0  0
    7.7462   44.7763   50.7076 H   0  0  0  0  0  0  0  0  0  0  0  0
    7.5168   43.9658   48.3709 H   0  0  0  0  0  0  0  0  0  0  0  0
    4.8216   43.7044   46.5681 H   0  0  0  0  0  0  0  0  0  0  0  0
    7.1403   40.3138   44.2399 H   0  0  0  0  0  0  0  0  0  0  0  0
    5.7668   38.3834   44.9824 H   0  0  0  0  0  0  0  0  0  0  0  0
    4.1496   38.7968   46.8217 H   0  0  0  0  0  0  0  0  0  0  0  0
    3.3319   43.2017   49.0510 H   0  0  0  0  0  0  0  0  0  0  0  0
    3.5591   44.0170   51.3832 H   0  0  0  0  0  0  0  0  0  0  0  0
    4.1364   47.3329   53.9988 H   0  0  0  0  0  0  0  0  0  0  0  0
    4.8764   49.5186   55.3551 H   0  0  0  0  0  0  0  0  0  0  0  0
    7.4988   49.5063   55.3676 H   0  0  0  0  0  0  0  0  0  0  0  0
  1  2  1  0
  2  3  2  0
  3  4  1  0
  4  5  1  0
  5  6  1  0
  6  7  2  0
  7  8  1  0
  8  9  2  0
  9 10  1  0
 10 11  1  0
 11 12  2  0
 12 13  1  0
 13 14  2  0
 14 15  1  0
 15 16  2  0
  9 17  1  0
 17 18  2  0
  4 19  2  0
 19 20  1  0
 20 21  2  0
 21 22  1  0
 22 23  1  0
 23 24  2  0
 24  2  1  0
 18  6  1  0
 23 19  1  0
 16 11  1  0
  1 25  1  0
  1 26  1  0
  1 27  1  0
  5 28  1  0
  7 29  1  0
  8 30  1  0
 10 31  1  0
 13 32  1  0
 14 33  1  0
 15 34  1  0
 17 35  1  0
 18 36  1  0
 20 37  1  0
 21 38  1  0
 22 39  1  0
M  END
>  <meeko>  (44) 
{"is_sidechain": false}

>  <CID>  (44) 
Z1883550081

>  <pose_index>  (44) 
2

>  <docking_score>  (44) 
-9.003

>  <num_viable_poses>  (44) 
8

>  <rmsd_pairwise_std>  (44) 
0.3219749311289502

>  <rmsd_to_best_std>  (44) 
0.3240286103751883

>  <MWT>  (44) 
317.3559999999997

>  <TPSA>  (44) 
91.41000000000001

>  <logP>  (44) 
3.543520000000001

>  <HBD>  (44) 
3

>  <HBA>  (44) 
6

>  <SMILES>  (44) 
[H]c1nc(N([H])c2c([H])c([H])c(N([H])c3nc(C([H])([H])[H])nc4c3c([H])c([H])n4[H])c([H])c2[H])nc([H])c1[H]

$$$$
Z1887562379_pose1
     RDKit          3D

 43 46  0  0  0  0  0  0  0  0999 V2000
    9.8300   47.1520   52.4830 C   0  0  0  0  0  0  0  0  0  0  0  0
    9.5610   46.7830   53.7970 C   0  0  0  0  0  0  0  0  0  0  0  0
    8.2440   46.5680   54.2110 C   0  0  0  0  0  0  0  0  0  0  0  0
    7.1810   46.7090   53.3030 C   0  0  0  0  0  0  0  0  0  0  0  0
    5.8500   46.4750   53.7430 N   0  0  0  0  0  0  0  0  0  0  0  0
    5.1250   47.2790   54.5930 C   0  0  0  0  0  0  0  0  0  0  0  0
    3.9240   46.7880   54.7880 N   0  0  0  0  0  0  0  0  0  0  0  0
    3.8340   45.6260   54.0870 N   0  0  0  0  0  0  0  0  0  0  0  0
    4.9860   45.4220   53.4750 C   0  0  0  0  0  0  0  0  0  0  0  0
    5.3040   44.1570   52.7600 C   0  0  0  0  0  0  0  0  0  0  0  0
    4.8750   44.2270   51.2980 N   0  0  0  0  0  4  0  0  0  0  0  0
    6.0170   44.2400   50.3180 C   0  0  0  0  0  0  0  0  0  0  0  0
    6.1590   42.8950   49.6040 C   0  0  0  0  0  0  0  0  0  0  0  0
    5.7430   41.7110   50.4680 C   0  0  0  0  0  0  0  0  0  0  0  0
    4.3010   41.8380   50.9770 C   0  0  0  0  0  0  0  0  0  0  0  0
    3.7600   43.2700   50.9050 C   0  0  0  0  0  0  0  0  0  0  0  0
    2.4770   43.4910   51.6650 C   0  0  0  0  0  0  0  0  0  0  0  0
    2.0720   42.7070   52.7060 N   0  0  0  0  0  0  0  0  0  0  0  0
    0.9140   43.2270   53.0430 C   0  0  0  0  0  0  0  0  0  0  0  0
    0.6410   44.2920   52.2420 N   0  0  0  0  0  0  0  0  0  0  0  0
    1.6480   44.5060   51.3670 N   0  0  0  0  0  0  0  0  0  0  0  0
    7.4610   47.0990   51.9860 C   0  0  0  0  0  0  0  0  0  0  0  0
    8.7820   47.3150   51.5810 C   0  0  0  0  0  0  0  0  0  0  0  0
   10.8681   47.3146   52.1574 H   0  0  0  0  0  0  0  0  0  0  0  0
   10.3876   46.6601   54.5122 H   0  0  0  0  0  0  0  0  0  0  0  0
    8.0380   46.2866   55.2543 H   0  0  0  0  0  0  0  0  0  0  0  0
    5.5015   48.2074   55.0473 H   0  0  0  0  0  0  0  0  0  0  0  0
    6.3888   43.9809   52.8076 H   0  0  0  0  0  0  0  0  0  0  0  0
    4.7561   43.3356   53.2449 H   0  0  0  0  0  0  0  0  0  0  0  0
    4.4270   45.1580   51.2460 H   0  0  0  0  0  0  0  0  0  0  0  0
    5.8361   45.0249   49.5689 H   0  0  0  0  0  0  0  0  0  0  0  0
    6.9461   44.4353   50.8736 H   0  0  0  0  0  0  0  0  0  0  0  0
    5.5284   42.9091   48.7028 H   0  0  0  0  0  0  0  0  0  0  0  0
    7.2238   42.7645   49.3606 H   0  0  0  0  0  0  0  0  0  0  0  0
    5.8274   40.7909   49.8711 H   0  0  0  0  0  0  0  0  0  0  0  0
    6.4075   41.6846   51.3442 H   0  0  0  0  0  0  0  0  0  0  0  0
    3.6561   41.1894   50.3660 H   0  0  0  0  0  0  0  0  0  0  0  0
    4.3005   41.5410   52.0361 H   0  0  0  0  0  0  0  0  0  0  0  0
    3.4586   43.4735   49.8668 H   0  0  0  0  0  0  0  0  0  0  0  0
    0.2640   42.8576   53.8499 H   0  0  0  0  0  0  0  0  0  0  0  0
   -0.1750   44.8980   52.2370 H   0  0  0  0  0  0  0  0  0  0  0  0
    6.6386   47.2356   51.2684 H   0  0  0  0  0  0  0  0  0  0  0  0
    8.9942   47.6153   50.5443 H   0  0  0  0  0  0  0  0  0  0  0  0
  1  2  2  0
  2  3  1  0
  3  4  2  0
  4  5  1  0
  5  6  1  0
  6  7  2  0
  7  8  1  0
  8  9  2  0
  9 10  1  0
 10 11  1  0
 11 12  1  0
 12 13  1  0
 13 14  1  0
 14 15  1  0
 15 16  1  0
 16 17  1  0
 17 18  1  0
 18 19  2  0
 19 20  1  0
 20 21  1  0
  4 22  1  0
 22 23  2  0
 23  1  1  0
  9  5  1  0
 16 11  1  0
 21 17  2  0
  1 24  1  0
  2 25  1  0
  3 26  1  0
  6 27  1  0
 10 28  1  0
 10 29  1  0
 11 30  1  0
 12 31  1  0
 12 32  1  0
 13 33  1  0
 13 34  1  0
 14 35  1  0
 14 36  1  0
 15 37  1  0
 15 38  1  0
 16 39  1  0
 19 40  1  0
 20 41  1  0
 22 42  1  0
 23 43  1  0
M  CHG  1  11   1
M  END
>  <meeko>  (45) 
{"is_sidechain": false}

>  <CID>  (45) 
Z1887562379

>  <pose_index>  (45) 
1

>  <docking_score>  (45) 
-8.346

>  <num_viable_poses>  (45) 
5

>  <rmsd_pairwise_std>  (45) 
0.22861069654584312

>  <rmsd_to_best_std>  (45) 
0.18748010667049758

>  <MWT>  (45) 
310.38499999999965

>  <TPSA>  (45) 
76.72

>  <logP>  (45) 
0.6954999999999993

>  <HBD>  (45) 
2

>  <HBA>  (45) 
5

>  <SMILES>  (45) 
[H]c1c([H])c([H])c(-n2c([H])nnc2C([H])([H])[N+]2([H])C([H])([H])C([H])([H])C([H])([H])C([H])([H])C2([H])c2nc([H])n([H])n2)c([H])c1[H]

$$$$
Z195569274_pose1
     RDKit          3D

 52 55  0  0  0  0  0  0  0  0999 V2000
    3.4620   42.0420   51.8790 C   0  0  0  0  0  0  0  0  0  0  0  0
    3.6960   43.5530   51.8050 C   0  0  0  0  0  0  0  0  0  0  0  0
    5.0800   43.8260   51.2150 C   0  0  0  0  0  0  0  0  0  0  0  0
    5.4730   43.0730   50.1890 N   0  0  0  0  0  0  0  0  0  0  0  0
    6.6140   43.4480   49.6340 C   0  0  0  0  0  0  0  0  0  0  0  0
    7.0850   42.6990   48.5810 N   0  0  0  0  0  0  0  0  0  0  0  0
    7.3250   44.5000   50.0040 N   0  0  0  0  0  0  0  0  0  0  0  0
    6.8360   45.2300   51.0020 C   0  0  0  0  0  0  0  0  0  0  0  0
    7.5640   46.3650   51.3340 N   0  0  0  0  0  0  0  0  0  0  0  0
    8.2970   46.7570   52.4630 C   0  0  0  0  0  0  0  0  0  0  0  0
    9.6560   46.4040   52.5330 C   0  0  0  0  0  0  0  0  0  0  0  0
   10.4500   46.7710   53.6230 C   0  0  0  0  0  0  0  0  0  0  0  0
    9.8980   47.4980   54.6720 C   0  0  0  0  0  0  0  0  0  0  0  0
    8.5540   47.8570   54.6260 C   0  0  0  0  0  0  0  0  0  0  0  0
    7.7640   47.4900   53.5300 C   0  0  0  0  0  0  0  0  0  0  0  0
    5.7020   44.9280   51.6240 N   0  0  0  0  0  0  0  0  0  0  0  0
    2.5680   44.2180   50.9700 N   0  0  0  0  0  4  0  0  0  0  0  0
    1.1930   43.5960   51.1200 C   0  0  0  0  0  0  0  0  0  0  0  0
    0.5930   43.8090   52.5260 C   0  0  0  0  0  0  0  0  0  0  0  0
    1.3200   44.8080   53.3130 N   0  0  0  0  0  0  0  0  0  0  0  0
    0.8430   45.0060   54.6060 C   0  0  0  0  0  0  0  0  0  0  0  0
    1.6930   45.4530   55.5430 N   0  0  0  0  0  0  0  0  0  0  0  0
    1.2160   45.6160   56.7940 C   0  0  0  0  0  0  0  0  0  0  0  0
   -0.0790   45.3450   57.1500 C   0  0  0  0  0  0  0  0  0  0  0  0
   -0.8760   44.8890   56.1320 C   0  0  0  0  0  0  0  0  0  0  0  0
   -0.4400   44.7130   54.8680 N   0  0  0  0  0  0  0  0  0  0  0  0
    1.8860   45.9990   52.6720 C   0  0  0  0  0  0  0  0  0  0  0  0
    2.4280   45.7150   51.2550 C   0  0  0  0  0  0  0  0  0  0  0  0
    3.4136   41.7296   52.9326 H   0  0  0  0  0  0  0  0  0  0  0  0
    2.5145   41.7928   51.3788 H   0  0  0  0  0  0  0  0  0  0  0  0
    4.2897   41.5179   51.3788 H   0  0  0  0  0  0  0  0  0  0  0  0
    3.6661   43.9913   52.8135 H   0  0  0  0  0  0  0  0  0  0  0  0
    6.3800   42.5930   47.8610 H   0  0  0  0  0  0  0  0  0  0  0  0
    7.9990   42.9970   48.2710 H   0  0  0  0  0  0  0  0  0  0  0  0
    7.5050   47.0440   50.5860 H   0  0  0  0  0  0  0  0  0  0  0  0
   10.1044   45.8260   51.7115 H   0  0  0  0  0  0  0  0  0  0  0  0
   11.5117   46.4847   53.6511 H   0  0  0  0  0  0  0  0  0  0  0  0
   10.5193   47.7874   55.5324 H   0  0  0  0  0  0  0  0  0  0  0  0
    8.1112   48.4309   55.4534 H   0  0  0  0  0  0  0  0  0  0  0  0
    6.7041   47.7832   53.5068 H   0  0  0  0  0  0  0  0  0  0  0  0
    2.8750   44.1300   49.9930 H   0  0  0  0  0  0  0  0  0  0  0  0
    0.5192   44.0485   50.3776 H   0  0  0  0  0  0  0  0  0  0  0  0
    1.2999   42.5122   50.9651 H   0  0  0  0  0  0  0  0  0  0  0  0
   -0.4499   44.1409   52.4155 H   0  0  0  0  0  0  0  0  0  0  0  0
    0.6644   42.8515   53.0628 H   0  0  0  0  0  0  0  0  0  0  0  0
    1.9029   45.9860   57.5694 H   0  0  0  0  0  0  0  0  0  0  0  0
   -0.4513   45.4830   58.1758 H   0  0  0  0  0  0  0  0  0  0  0  0
   -1.9266   44.6543   56.3581 H   0  0  0  0  0  0  0  0  0  0  0  0
    1.1011   46.7664   52.6008 H   0  0  0  0  0  0  0  0  0  0  0  0
    2.7320   46.3366   53.2887 H   0  0  0  0  0  0  0  0  0  0  0  0
    1.7366   46.1510   50.5189 H   0  0  0  0  0  0  0  0  0  0  0  0
    3.4298   46.1637   51.1843 H   0  0  0  0  0  0  0  0  0  0  0  0
  1  2  1  0
  2  3  1  0
  3  4  2  0
  4  5  1  0
  5  6  1  0
  5  7  2  0
  7  8  1  0
  8  9  1  0
  9 10  1  0
 10 11  2  0
 11 12  1  0
 12 13  2  0
 13 14  1  0
 14 15  2  0
  8 16  2  0
  2 17  1  0
 17 18  1  0
 18 19  1  0
 19 20  1  0
 20 21  1  0
 21 22  2  0
 22 23  1  0
 23 24  2  0
 24 25  1  0
 25 26  2  0
 20 27  1  0
 27 28  1  0
 16  3  1  0
 28 17  1  0
 15 10  1  0
 26 21  1  0
  1 29  1  0
  1 30  1  0
  1 31  1  0
  2 32  1  0
  6 33  1  0
  6 34  1  0
  9 35  1  0
 11 36  1  0
 12 37  1  0
 13 38  1  0
 14 39  1  0
 15 40  1  0
 17 41  1  0
 18 42  1  0
 18 43  1  0
 19 44  1  0
 19 45  1  0
 23 46  1  0
 24 47  1  0
 25 48  1  0
 27 49  1  0
 27 50  1  0
 28 51  1  0
 28 52  1  0
M  CHG  1  17   1
M  END
>  <meeko>  (46) 
{"is_sidechain": false}

>  <CID>  (46) 
Z195569274

>  <pose_index>  (46) 
1

>  <docking_score>  (46) 
-8.882

>  <num_viable_poses>  (46) 
5

>  <rmsd_pairwise_std>  (46) 
0.37846496845229627

>  <rmsd_to_best_std>  (46) 
0.13882169896404423

>  <MWT>  (46) 
378.4639999999997

>  <TPSA>  (46) 
110.17999999999999

>  <logP>  (46) 
0.4535000000000009

>  <HBD>  (46) 
3

>  <HBA>  (46) 
8

>  <SMILES>  (46) 
[H]c1nc(N2C([H])([H])C([H])([H])[N+]([H])(C([H])(c3nc(N([H])[H])nc(N([H])c4c([H])c([H])c([H])c([H])c4[H])n3)C([H])([H])[H])C([H])([H])C2([H])[H])nc([H])c1[H]

$$$$
Z195980060_pose4
     RDKit          3D

 42 44  0  0  0  0  0  0  0  0999 V2000
    4.5636   44.0658   51.2924 C   0  0  0  0  0  0  0  0  0  0  0  0
    3.6683   43.2645   52.0692 O   0  0  0  0  0  0  0  0  0  0  0  0
    3.3956   43.7665   53.2936 C   0  0  0  0  0  0  0  0  0  0  0  0
    3.8636   43.3934   54.3675 O   0  0  0  0  0  0  0  0  0  0  0  0
    2.3905   44.9213   53.2409 C   0  0  0  0  0  0  0  0  0  0  0  0
    0.9830   44.3991   53.5275 C   0  0  0  0  0  0  0  0  0  0  0  0
   -0.0522   45.5186   53.5668 C   0  0  0  0  0  0  0  0  0  0  0  0
    0.4375   46.7692   54.2958 C   0  0  0  0  0  0  0  0  0  0  0  0
    1.6480   46.4885   55.1667 C   0  0  0  0  0  0  0  0  0  0  0  0
    2.7867   45.9895   54.3214 N   0  0  0  0  0  4  0  0  0  0  0  0
    3.6511   47.1192   53.7486 C   0  0  0  0  0  0  0  0  0  0  0  0
    5.1283   46.7444   53.6511 C   0  0  0  0  0  0  0  0  0  0  0  0
    5.7706   46.9849   52.5532 N   0  0  0  0  0  0  0  0  0  0  0  0
    7.1205   46.5903   52.4797 C   0  0  0  0  0  0  0  0  0  0  0  0
    7.8366   46.8477   51.3093 C   0  0  0  0  0  0  0  0  0  0  0  0
    9.1743   46.4565   51.1986 C   0  0  0  0  0  0  0  0  0  0  0  0
    9.8074   45.8049   52.2582 C   0  0  0  0  0  0  0  0  0  0  0  0
    9.1065   45.5436   53.4332 C   0  0  0  0  0  0  0  0  0  0  0  0
    7.7706   45.9385   53.5335 C   0  0  0  0  0  0  0  0  0  0  0  0
    6.9904   45.6846   54.7534 C   0  0  0  0  0  0  0  0  0  0  0  0
    7.4541   45.1282   55.7381 O   0  0  0  0  0  0  0  0  0  0  0  0
    5.6852   46.1149   54.7289 N   0  0  0  0  0  0  0  0  0  0  0  0
    4.0040   44.5667   50.4887 H   0  0  0  0  0  0  0  0  0  0  0  0
    5.0333   44.8221   51.9385 H   0  0  0  0  0  0  0  0  0  0  0  0
    5.3419   43.4247   50.8527 H   0  0  0  0  0  0  0  0  0  0  0  0
    2.4041   45.3779   52.2403 H   0  0  0  0  0  0  0  0  0  0  0  0
    0.7028   43.6856   52.7385 H   0  0  0  0  0  0  0  0  0  0  0  0
    0.9970   43.9184   54.5168 H   0  0  0  0  0  0  0  0  0  0  0  0
   -0.3076   45.7945   52.5331 H   0  0  0  0  0  0  0  0  0  0  0  0
   -0.9227   45.1381   54.1213 H   0  0  0  0  0  0  0  0  0  0  0  0
    0.7070   47.5312   53.5497 H   0  0  0  0  0  0  0  0  0  0  0  0
   -0.3751   47.1186   54.9497 H   0  0  0  0  0  0  0  0  0  0  0  0
    1.9519   47.4144   55.6769 H   0  0  0  0  0  0  0  0  0  0  0  0
    1.3871   45.7206   55.9098 H   0  0  0  0  0  0  0  0  0  0  0  0
    3.4165   45.4582   54.9509 H   0  0  0  0  0  0  0  0  0  0  0  0
    3.2841   47.3661   52.7415 H   0  0  0  0  0  0  0  0  0  0  0  0
    3.5719   47.9760   54.4339 H   0  0  0  0  0  0  0  0  0  0  0  0
    7.3457   47.3613   50.4695 H   0  0  0  0  0  0  0  0  0  0  0  0
    9.7303   46.6630   50.2722 H   0  0  0  0  0  0  0  0  0  0  0  0
   10.8596   45.4980   52.1655 H   0  0  0  0  0  0  0  0  0  0  0  0
    9.5996   45.0318   54.2727 H   0  0  0  0  0  0  0  0  0  0  0  0
    5.1876   45.9371   55.5922 H   0  0  0  0  0  0  0  0  0  0  0  0
  1  2  1  0
  2  3  1  0
  3  4  2  0
  3  5  1  0
  5  6  1  0
  6  7  1  0
  7  8  1  0
  8  9  1  0
  9 10  1  0
 10 11  1  0
 11 12  1  0
 12 13  2  0
 13 14  1  0
 14 15  2  0
 15 16  1  0
 16 17  2  0
 17 18  1  0
 18 19  2  0
 19 20  1  0
 20 21  2  0
 20 22  1  0
 10  5  1  0
 22 12  1  0
 19 14  1  0
  1 23  1  0
  1 24  1  0
  1 25  1  0
  5 26  1  0
  6 27  1  0
  6 28  1  0
  7 29  1  0
  7 30  1  0
  8 31  1  0
  8 32  1  0
  9 33  1  0
  9 34  1  0
 10 35  1  0
 11 36  1  0
 11 37  1  0
 15 38  1  0
 16 39  1  0
 17 40  1  0
 18 41  1  0
 22 42  1  0
M  CHG  1  10   1
M  END
>  <meeko>  (47) 
{"is_sidechain": false}

>  <CID>  (47) 
Z195980060

>  <pose_index>  (47) 
4

>  <docking_score>  (47) 
-8.183

>  <num_viable_poses>  (47) 
5

>  <rmsd_pairwise_std>  (47) 
0.39540017668815175

>  <rmsd_to_best_std>  (47) 
0.2724247695667374

>  <MWT>  (47) 
302.3539999999996

>  <TPSA>  (47) 
76.49000000000001

>  <logP>  (47) 
0.033500000000000585

>  <HBD>  (47) 
2

>  <HBA>  (47) 
4

>  <SMILES>  (47) 
[H]c1c([H])c([H])c2c(=O)n([H])c(C([H])([H])[N+]3([H])C([H])([H])C([H])([H])C([H])([H])C([H])([H])C3([H])C(=O)OC([H])([H])[H])nc2c1[H]

$$$$
Z218103890_pose1
     RDKit          3D

 58 61  0  0  0  0  0  0  0  0999 V2000
   10.8020   45.6560   51.5100 C   0  0  0  0  0  0  0  0  0  0  0  0
   10.6140   46.5170   52.6290 O   0  0  0  0  0  0  0  0  0  0  0  0
    9.3160   46.8480   52.9000 C   0  0  0  0  0  0  0  0  0  0  0  0
    8.4930   46.1910   53.8130 C   0  0  0  0  0  0  0  0  0  0  0  0
    7.1640   46.6020   53.9720 C   0  0  0  0  0  0  0  0  0  0  0  0
    6.6440   47.6500   53.2080 C   0  0  0  0  0  0  0  0  0  0  0  0
    5.3370   47.9600   53.4620 O   0  0  0  0  0  0  0  0  0  0  0  0
    4.7070   47.3060   54.5770 C   0  0  0  0  0  0  0  0  0  0  0  0
    3.4470   46.5930   54.2120 C   0  0  0  0  0  0  0  0  0  0  0  0
    2.7280   46.9160   53.1270 N   0  0  0  0  0  0  0  0  0  0  0  0
    1.6580   46.0310   53.1630 O   0  0  0  0  0  0  0  0  0  0  0  0
    1.8340   45.2540   54.2660 C   0  0  0  0  0  0  0  0  0  0  0  0
    0.7820   44.2330   54.5130 C   0  0  0  0  0  0  0  0  0  0  0  0
    0.8080   42.9580   53.6540 N   0  0  0  0  0  4  0  0  0  0  0  0
   -0.3610   42.8040   52.7220 C   0  0  0  0  0  0  0  0  0  0  0  0
   -0.1370   43.4380   51.3600 C   0  0  0  0  0  0  0  0  0  0  0  0
    1.2840   43.3170   50.8240 C   0  0  0  0  0  0  0  0  0  0  0  0
    2.1140   42.2830   51.5780 C   0  0  0  0  0  0  0  0  0  0  0  0
    3.5440   42.2050   51.0480 C   0  0  0  0  0  0  0  0  0  0  0  0
    4.0490   41.1080   50.8260 O   0  0  0  0  0  0  0  0  0  0  0  0
    4.1250   43.4370   50.8290 N   0  0  0  0  0  0  0  0  0  0  0  0
    5.4430   43.6950   50.3920 C   0  0  0  0  0  0  0  0  0  0  0  0
    6.2200   42.7880   49.6700 C   0  0  0  0  0  0  0  0  0  0  0  0
    7.5210   43.1220   49.2810 C   0  0  0  0  0  0  0  0  0  0  0  0
    8.0560   44.3640   49.6060 C   0  0  0  0  0  0  0  0  0  0  0  0
    7.2950   45.2730   50.3330 C   0  0  0  0  0  0  0  0  0  0  0  0
    5.9950   44.9430   50.7230 C   0  0  0  0  0  0  0  0  0  0  0  0
    2.1790   42.6580   53.0610 C   0  0  0  0  0  0  0  0  0  0  0  0
    2.9210   45.5470   54.9470 N   0  0  0  0  0  0  0  0  0  0  0  0
    7.4710   48.3160   52.3050 C   0  0  0  0  0  0  0  0  0  0  0  0
    8.8000   47.9080   52.1480 C   0  0  0  0  0  0  0  0  0  0  0  0
   11.0242   44.6384   51.8636 H   0  0  0  0  0  0  0  0  0  0  0  0
    9.8860   45.6408   50.9011 H   0  0  0  0  0  0  0  0  0  0  0  0
   11.6410   46.0240   50.9011 H   0  0  0  0  0  0  0  0  0  0  0  0
    8.8862   45.3525   54.4066 H   0  0  0  0  0  0  0  0  0  0  0  0
    6.5220   46.0941   54.7067 H   0  0  0  0  0  0  0  0  0  0  0  0
    5.4130   46.5739   54.9961 H   0  0  0  0  0  0  0  0  0  0  0  0
    4.4389   48.0879   55.3028 H   0  0  0  0  0  0  0  0  0  0  0  0
    0.8662   43.9223   55.5648 H   0  0  0  0  0  0  0  0  0  0  0  0
   -0.1596   44.7324   54.2410 H   0  0  0  0  0  0  0  0  0  0  0  0
    0.6630   42.2170   54.3530 H   0  0  0  0  0  0  0  0  0  0  0  0
   -0.5533   41.7304   52.5790 H   0  0  0  0  0  0  0  0  0  0  0  0
   -1.2140   43.3225   53.1841 H   0  0  0  0  0  0  0  0  0  0  0  0
   -0.8158   42.9546   50.6419 H   0  0  0  0  0  0  0  0  0  0  0  0
   -0.3302   44.5138   51.4840 H   0  0  0  0  0  0  0  0  0  0  0  0
    1.2363   43.0247   49.7646 H   0  0  0  0  0  0  0  0  0  0  0  0
    1.7722   44.2938   50.9562 H   0  0  0  0  0  0  0  0  0  0  0  0
    1.6272   41.3069   51.4356 H   0  0  0  0  0  0  0  0  0  0  0  0
    3.5610   44.2670   50.9790 H   0  0  0  0  0  0  0  0  0  0  0  0
    5.8063   41.8038   49.4051 H   0  0  0  0  0  0  0  0  0  0  0  0
    8.1250   42.3980   48.7145 H   0  0  0  0  0  0  0  0  0  0  0  0
    9.0764   44.6261   49.2895 H   0  0  0  0  0  0  0  0  0  0  0  0
    7.7172   46.2527   50.6011 H   0  0  0  0  0  0  0  0  0  0  0  0
    5.3976   45.6681   51.2952 H   0  0  0  0  0  0  0  0  0  0  0  0
    2.6266   41.8205   53.6162 H   0  0  0  0  0  0  0  0  0  0  0  0
    2.7841   43.5727   53.1454 H   0  0  0  0  0  0  0  0  0  0  0  0
    7.0799   49.1598   51.7176 H   0  0  0  0  0  0  0  0  0  0  0  0
    9.4463   48.4269   51.4248 H   0  0  0  0  0  0  0  0  0  0  0  0
  1  2  1  0
  2  3  1  0
  3  4  2  0
  4  5  1  0
  5  6  2  0
  6  7  1  0
  7  8  1  0
  8  9  1  0
  9 10  2  0
 10 11  1  0
 11 12  1  0
 12 13  1  0
 13 14  1  0
 14 15  1  0
 15 16  1  0
 16 17  1  0
 17 18  1  0
 18 19  1  0
 19 20  2  0
 19 21  1  0
 21 22  1  0
 22 23  2  0
 23 24  1  0
 24 25  2  0
 25 26  1  0
 26 27  2  0
 18 28  1  0
 12 29  2  0
  6 30  1  0
 30 31  2  0
 31  3  1  0
 29  9  1  0
 28 14  1  0
 27 22  1  0
  1 32  1  0
  1 33  1  0
  1 34  1  0
  4 35  1  0
  5 36  1  0
  8 37  1  0
  8 38  1  0
 13 39  1  0
 13 40  1  0
 14 41  1  0
 15 42  1  0
 15 43  1  0
 16 44  1  0
 16 45  1  0
 17 46  1  0
 17 47  1  0
 18 48  1  0
 21 49  1  0
 23 50  1  0
 24 51  1  0
 25 52  1  0
 26 53  1  0
 27 54  1  0
 28 55  1  0
 28 56  1  0
 30 57  1  0
 31 58  1  0
M  CHG  1  14   1
M  END
>  <meeko>  (48) 
{"is_sidechain": false}

>  <CID>  (48) 
Z218103890

>  <pose_index>  (48) 
1

>  <docking_score>  (48) 
-9.155

>  <num_viable_poses>  (48) 
5

>  <rmsd_pairwise_std>  (48) 
0.44594315498066983

>  <rmsd_to_best_std>  (48) 
0.6323863165250745

>  <MWT>  (48) 
423.49299999999965

>  <TPSA>  (48) 
90.92

>  <logP>  (48) 
2.090799999999999

>  <HBD>  (48) 
2

>  <HBA>  (48) 
6

>  <SMILES>  (48) 
[H]c1c([H])c([H])c(N([H])C(=O)C2([H])C([H])([H])C([H])([H])C([H])([H])[N+]([H])(C([H])([H])c3nc(C([H])([H])Oc4c([H])c([H])c(OC([H])([H])[H])c([H])c4[H])no3)C2([H])[H])c([H])c1[H]

$$$$
Z24682342_pose1
     RDKit          3D

 46 49  0  0  0  0  0  0  0  0999 V2000
    2.1630   45.7190   54.7000 O   0  0  0  0  0  0  0  0  0  0  0  0
    2.1740   45.7680   53.4680 C   0  0  0  0  0  0  0  0  0  0  0  0
    2.7590   46.9620   52.7320 C   0  0  0  0  0  0  0  0  0  0  0  0
    4.0180   47.7590   53.7800 S   0  0  0  0  0  0  0  0  0  0  0  0
    5.5180   47.1600   53.0510 C   0  0  0  0  0  0  0  0  0  0  0  0
    5.4540   46.3640   51.9840 N   0  0  0  0  0  0  0  0  0  0  0  0
    6.6060   45.9160   51.4590 C   0  0  0  0  0  0  0  0  0  0  0  0
    6.5630   45.0830   50.3080 N   0  0  0  0  0  0  0  0  0  0  0  0
    6.0610   43.7640   50.2040 C   0  0  0  0  0  0  0  0  0  0  0  0
    4.9460   43.3980   50.9710 C   0  0  0  0  0  0  0  0  0  0  0  0
    4.3850   42.1190   50.8710 C   0  0  0  0  0  0  0  0  0  0  0  0
    4.9190   41.1940   49.9790 C   0  0  0  0  0  0  0  0  0  0  0  0
    5.9990   41.5550   49.1790 C   0  0  0  0  0  0  0  0  0  0  0  0
    6.5540   42.8340   49.2830 C   0  0  0  0  0  0  0  0  0  0  0  0
    7.8530   46.2620   52.0070 C   0  0  0  0  0  0  0  0  0  0  0  0
    9.1140   45.8140   51.5320 C   0  0  0  0  0  0  0  0  0  0  0  0
   10.2950   46.2240   52.1440 C   0  0  0  0  0  0  0  0  0  0  0  0
   10.2350   47.0800   53.2340 C   0  0  0  0  0  0  0  0  0  0  0  0
    8.9930   47.5100   53.7090 C   0  0  0  0  0  0  0  0  0  0  0  0
    7.8000   47.1140   53.1160 C   0  0  0  0  0  0  0  0  0  0  0  0
    6.6540   47.5620   53.6320 N   0  0  0  0  0  0  0  0  0  0  0  0
    1.6640   44.7360   52.7070 N   0  0  0  0  0  0  0  0  0  0  0  0
    1.1190   43.5430   53.3310 C   0  0  0  0  0  0  0  0  0  0  0  0
    0.9240   42.5680   52.1790 C   0  0  0  0  0  0  0  0  0  0  0  0
    0.6260   43.4890   51.0050 C   0  0  0  0  0  0  0  0  0  0  0  0
    1.5480   44.6740   51.2590 C   0  0  0  0  0  0  0  0  0  0  0  0
    3.2228   46.6238   51.7936 H   0  0  0  0  0  0  0  0  0  0  0  0
    1.9593   47.6824   52.5051 H   0  0  0  0  0  0  0  0  0  0  0  0
    6.3090   45.6400   49.5020 H   0  0  0  0  0  0  0  0  0  0  0  0
    4.5038   44.1289   51.6640 H   0  0  0  0  0  0  0  0  0  0  0  0
    3.5228   41.8456   51.4971 H   0  0  0  0  0  0  0  0  0  0  0  0
    4.4901   40.1837   49.9067 H   0  0  0  0  0  0  0  0  0  0  0  0
    6.4171   40.8322   48.4630 H   0  0  0  0  0  0  0  0  0  0  0  0
    7.3931   43.1138   48.6290 H   0  0  0  0  0  0  0  0  0  0  0  0
    9.1581   45.1337   50.6687 H   0  0  0  0  0  0  0  0  0  0  0  0
   11.2667   45.8726   51.7669 H   0  0  0  0  0  0  0  0  0  0  0  0
   11.1607   47.4187   53.7222 H   0  0  0  0  0  0  0  0  0  0  0  0
    8.9586   48.1825   54.5788 H   0  0  0  0  0  0  0  0  0  0  0  0
    1.8229   43.1349   54.0713 H   0  0  0  0  0  0  0  0  0  0  0  0
    0.1831   43.7438   53.8730 H   0  0  0  0  0  0  0  0  0  0  0  0
    1.8357   41.9794   51.9994 H   0  0  0  0  0  0  0  0  0  0  0  0
    0.1315   41.8279   52.3641 H   0  0  0  0  0  0  0  0  0  0  0  0
    0.8639   43.0005   50.0486 H   0  0  0  0  0  0  0  0  0  0  0  0
   -0.4346   43.7717   50.9332 H   0  0  0  0  0  0  0  0  0  0  0  0
    2.5320   44.5082   50.7961 H   0  0  0  0  0  0  0  0  0  0  0  0
    1.1591   45.6085   50.8285 H   0  0  0  0  0  0  0  0  0  0  0  0
  1  2  2  0
  2  3  1  0
  3  4  1  0
  4  5  1  0
  5  6  2  0
  6  7  1  0
  7  8  1  0
  8  9  1  0
  9 10  2  0
 10 11  1  0
 11 12  2  0
 12 13  1  0
 13 14  2  0
  7 15  2  0
 15 16  1  0
 16 17  2  0
 17 18  1  0
 18 19  2  0
 19 20  1  0
 20 21  2  0
  2 22  1  0
 22 23  1  0
 23 24  1  0
 24 25  1  0
 25 26  1  0
 21  5  1  0
 26 22  1  0
 14  9  1  0
 20 15  1  0
  3 27  1  0
  3 28  1  0
  8 29  1  0
 10 30  1  0
 11 31  1  0
 12 32  1  0
 13 33  1  0
 14 34  1  0
 16 35  1  0
 17 36  1  0
 18 37  1  0
 19 38  1  0
 23 39  1  0
 23 40  1  0
 24 41  1  0
 24 42  1  0
 25 43  1  0
 25 44  1  0
 26 45  1  0
 26 46  1  0
M  END
>  <meeko>  (49) 
{"is_sidechain": false}

>  <CID>  (49) 
Z24682342

>  <pose_index>  (49) 
1

>  <docking_score>  (49) 
-10.003

>  <num_viable_poses>  (49) 
5

>  <rmsd_pairwise_std>  (49) 
0.5011074319144366

>  <rmsd_to_best_std>  (49) 
0.44411451158586207

>  <MWT>  (49) 
364.4739999999997

>  <TPSA>  (49) 
58.120000000000005

>  <logP>  (49) 
4.087900000000003

>  <HBD>  (49) 
1

>  <HBA>  (49) 
5

>  <SMILES>  (49) 
[H]c1c([H])c([H])c(N([H])c2nc(SC([H])([H])C(=O)N3C([H])([H])C([H])([H])C([H])([H])C3([H])[H])nc3c([H])c([H])c([H])c([H])c23)c([H])c1[H]

$$$$
Z25402869_pose3
     RDKit          3D

 47 50  0  0  0  0  0  0  0  0999 V2000
    2.3020   42.5402   53.1514 O   0  0  0  0  0  0  0  0  0  0  0  0
    2.4038   43.7351   52.8889 C   0  0  0  0  0  0  0  0  0  0  0  0
    1.3468   44.7523   53.2838 C   0  0  0  0  0  0  0  0  0  0  0  0
    1.5550   45.2933   54.9989 S   0  0  0  0  0  0  0  0  0  0  0  0
    3.2697   45.6223   55.0252 C   0  0  0  0  0  0  0  0  0  0  0  0
    3.7681   46.7187   54.5043 N   0  0  0  0  0  0  0  0  0  0  0  0
    5.1406   46.7697   54.6366 N   0  0  0  0  0  0  0  0  0  0  0  0
    5.6359   45.7361   55.2878 C   0  0  0  0  0  0  0  0  0  0  0  0
    6.9623   45.5896   55.5328 N   0  0  0  0  0  0  0  0  0  0  0  0
    8.0235   45.7061   54.5994 C   0  0  0  0  0  0  0  0  0  0  0  0
    8.1524   46.9257   53.9098 C   0  0  0  0  0  0  0  0  0  0  0  0
    9.1730   47.1237   52.9730 C   0  0  0  0  0  0  0  0  0  0  0  0
   10.0807   46.1018   52.7061 C   0  0  0  0  0  0  0  0  0  0  0  0
    9.9640   44.8832   53.3726 C   0  0  0  0  0  0  0  0  0  0  0  0
    8.9385   44.6870   54.3054 C   0  0  0  0  0  0  0  0  0  0  0  0
    4.4319   44.5657   55.7034 S   0  0  0  0  0  0  0  0  0  0  0  0
    3.4689   44.2669   52.1904 N   0  0  0  0  0  0  0  0  0  0  0  0
    4.5770   43.4366   51.7310 C   0  0  0  0  0  0  0  0  0  0  0  0
    5.9301   43.9814   52.2166 C   0  0  0  0  0  0  0  0  0  0  0  0
    6.3665   45.1882   51.3896 C   0  0  0  0  0  0  0  0  0  0  0  0
    6.5539   44.7994   49.9250 C   0  0  0  0  0  0  0  0  0  0  0  0
    5.3988   43.9999   49.3713 C   0  0  0  0  0  0  0  0  0  0  0  0
    5.2653   43.8718   47.9768 C   0  0  0  0  0  0  0  0  0  0  0  0
    4.2418   43.0978   47.4238 C   0  0  0  0  0  0  0  0  0  0  0  0
    3.3446   42.4367   48.2558 C   0  0  0  0  0  0  0  0  0  0  0  0
    3.4702   42.5487   49.6427 C   0  0  0  0  0  0  0  0  0  0  0  0
    4.4986   43.3219   50.2170 C   0  0  0  0  0  0  0  0  0  0  0  0
    1.4267   45.6265   52.6210 H   0  0  0  0  0  0  0  0  0  0  0  0
    0.3588   44.2781   53.1889 H   0  0  0  0  0  0  0  0  0  0  0  0
    7.1571   44.8175   56.1650 H   0  0  0  0  0  0  0  0  0  0  0  0
    7.4383   47.7379   54.1104 H   0  0  0  0  0  0  0  0  0  0  0  0
    9.2583   48.0863   52.4476 H   0  0  0  0  0  0  0  0  0  0  0  0
   10.8860   46.2557   51.9727 H   0  0  0  0  0  0  0  0  0  0  0  0
   10.6794   44.0737   53.1652 H   0  0  0  0  0  0  0  0  0  0  0  0
    8.8499   43.7166   54.8158 H   0  0  0  0  0  0  0  0  0  0  0  0
    3.5889   45.2658   52.1284 H   0  0  0  0  0  0  0  0  0  0  0  0
    4.4950   42.4290   52.1646 H   0  0  0  0  0  0  0  0  0  0  0  0
    5.8385   44.2826   53.2706 H   0  0  0  0  0  0  0  0  0  0  0  0
    6.6856   43.1899   52.1044 H   0  0  0  0  0  0  0  0  0  0  0  0
    5.5971   45.9712   51.4597 H   0  0  0  0  0  0  0  0  0  0  0  0
    7.3248   45.5584   51.7827 H   0  0  0  0  0  0  0  0  0  0  0  0
    6.6606   45.7183   49.3299 H   0  0  0  0  0  0  0  0  0  0  0  0
    7.4501   44.1642   49.8666 H   0  0  0  0  0  0  0  0  0  0  0  0
    5.9754   44.3874   47.3135 H   0  0  0  0  0  0  0  0  0  0  0  0
    4.1458   43.0115   46.3314 H   0  0  0  0  0  0  0  0  0  0  0  0
    2.5379   41.8269   47.8228 H   0  0  0  0  0  0  0  0  0  0  0  0
    2.7560   42.0257   50.2957 H   0  0  0  0  0  0  0  0  0  0  0  0
  1  2  2  0
  2  3  1  0
  3  4  1  0
  4  5  1  0
  5  6  2  0
  6  7  1  0
  7  8  2  0
  8  9  1  0
  9 10  1  0
 10 11  2  0
 11 12  1  0
 12 13  2  0
 13 14  1  0
 14 15  2  0
  8 16  1  0
  2 17  1  0
 17 18  1  0
 18 19  1  0
 19 20  1  0
 20 21  1  0
 21 22  1  0
 22 23  2  0
 23 24  1  0
 24 25  2  0
 25 26  1  0
 26 27  2  0
 16  5  1  0
 27 18  1  0
 15 10  1  0
 27 22  1  0
  3 28  1  0
  3 29  1  0
  9 30  1  0
 11 31  1  0
 12 32  1  0
 13 33  1  0
 14 34  1  0
 15 35  1  0
 17 36  1  0
 18 37  1  0
 19 38  1  0
 19 39  1  0
 20 40  1  0
 20 41  1  0
 21 42  1  0
 21 43  1  0
 23 44  1  0
 24 45  1  0
 25 46  1  0
 26 47  1  0
M  END
>  <meeko>  (50) 
{"is_sidechain": false}

>  <CID>  (50) 
Z25402869

>  <pose_index>  (50) 
3

>  <docking_score>  (50) 
-8.493

>  <num_viable_poses>  (50) 
5

>  <rmsd_pairwise_std>  (50) 
0.38489070618483856

>  <rmsd_to_best_std>  (50) 
0.2204617010051616

>  <MWT>  (50) 
396.5409999999998

>  <TPSA>  (50) 
66.91

>  <logP>  (50) 
4.567600000000003

>  <HBD>  (50) 
2

>  <HBA>  (50) 
6

>  <SMILES>  (50) 
[H]c1c([H])c([H])c(N([H])c2nnc(SC([H])([H])C(=O)N([H])C3([H])c4c([H])c([H])c([H])c([H])c4C([H])([H])C([H])([H])C3([H])[H])s2)c([H])c1[H]

$$$$
Z2610310359_pose2
     RDKit          3D

 44 47  0  0  0  0  0  0  0  0999 V2000
    2.7234   43.8342   55.6362 O   0  0  0  0  0  0  0  0  0  0  0  0
    1.4846   43.7061   54.9539 C   0  0  0  0  0  0  0  0  0  0  0  0
    1.6550   43.9092   53.4475 C   0  0  0  0  0  0  0  0  0  0  0  0
    0.3783   43.4942   52.6928 C   0  0  0  0  0  0  0  0  0  0  0  0
    0.4850   43.7859   51.1920 C   0  0  0  0  0  0  0  0  0  0  0  0
    0.8931   45.2391   50.9318 C   0  0  0  0  0  0  0  0  0  0  0  0
    2.1186   45.5545   51.6690 N   0  0  0  0  0  0  0  0  0  0  0  0
    3.3114   45.1456   51.0648 C   0  0  0  0  0  0  0  0  0  0  0  0
    4.4422   45.8280   51.3579 N   0  0  0  0  0  0  0  0  0  0  0  0
    5.6428   45.4961   50.8298 C   0  0  0  0  0  0  0  0  0  0  0  0
    6.8303   46.1492   51.1814 N   0  0  0  0  0  0  0  0  0  0  0  0
    7.6623   46.0108   52.3068 C   0  0  0  0  0  0  0  0  0  0  0  0
    7.2395   46.2549   53.6153 C   0  0  0  0  0  0  0  0  0  0  0  0
    8.0931   46.0564   54.7048 C   0  0  0  0  0  0  0  0  0  0  0  0
    9.3928   45.6054   54.5006 C   0  0  0  0  0  0  0  0  0  0  0  0
    9.8382   45.3565   53.2065 C   0  0  0  0  0  0  0  0  0  0  0  0
    8.9792   45.5562   52.1215 C   0  0  0  0  0  0  0  0  0  0  0  0
    5.6257   44.4295   49.9517 C   0  0  0  0  0  0  0  0  0  0  0  0
    6.5592   43.7791   49.1913 N   0  0  0  0  0  0  0  0  0  0  0  0
    5.9203   42.7730   48.5195 C   0  0  0  0  0  0  0  0  0  0  0  0
    4.6389   42.7405   48.8023 N   0  0  0  0  0  0  0  0  0  0  0  0
    4.4428   43.7723   49.6831 C   0  0  0  0  0  0  0  0  0  0  0  0
    3.2695   44.1032   50.2329 N   0  0  0  0  0  0  0  0  0  0  0  0
    2.0141   45.3691   53.1194 C   0  0  0  0  0  0  0  0  0  0  0  0
    3.0935   42.9394   55.7581 H   0  0  0  0  0  0  0  0  0  0  0  0
    1.0778   42.7004   55.1359 H   0  0  0  0  0  0  0  0  0  0  0  0
    0.7987   44.4783   55.3325 H   0  0  0  0  0  0  0  0  0  0  0  0
    2.4852   43.2677   53.1169 H   0  0  0  0  0  0  0  0  0  0  0  0
    0.2148   42.4158   52.8354 H   0  0  0  0  0  0  0  0  0  0  0  0
   -0.4625   44.0778   53.0959 H   0  0  0  0  0  0  0  0  0  0  0  0
    1.2394   43.1180   50.7505 H   0  0  0  0  0  0  0  0  0  0  0  0
   -0.5016   43.6167   50.7358 H   0  0  0  0  0  0  0  0  0  0  0  0
    1.0687   45.3811   49.8553 H   0  0  0  0  0  0  0  0  0  0  0  0
    0.0866   45.9068   51.2693 H   0  0  0  0  0  0  0  0  0  0  0  0
    7.1884   46.7817   50.4856 H   0  0  0  0  0  0  0  0  0  0  0  0
    6.2138   46.6107   53.7924 H   0  0  0  0  0  0  0  0  0  0  0  0
    7.7359   46.2573   55.7256 H   0  0  0  0  0  0  0  0  0  0  0  0
   10.0644   45.4464   55.3571 H   0  0  0  0  0  0  0  0  0  0  0  0
   10.8658   45.0028   53.0368 H   0  0  0  0  0  0  0  0  0  0  0  0
    9.3413   45.3534   51.1027 H   0  0  0  0  0  0  0  0  0  0  0  0
    7.5401   44.0030   49.1192 H   0  0  0  0  0  0  0  0  0  0  0  0
    6.4186   42.0776   47.8280 H   0  0  0  0  0  0  0  0  0  0  0  0
    2.9775   45.6197   53.5874 H   0  0  0  0  0  0  0  0  0  0  0  0
    1.2234   46.0277   53.5079 H   0  0  0  0  0  0  0  0  0  0  0  0
  1  2  1  0
  2  3  1  0
  3  4  1  0
  4  5  1  0
  5  6  1  0
  6  7  1  0
  7  8  1  0
  8  9  2  0
  9 10  1  0
 10 11  1  0
 11 12  1  0
 12 13  2  0
 13 14  1  0
 14 15  2  0
 15 16  1  0
 16 17  2  0
 10 18  2  0
 18 19  1  0
 19 20  1  0
 20 21  2  0
 21 22  1  0
 22 23  2  0
  7 24  1  0
 24  3  1  0
 23  8  1  0
 17 12  1  0
 22 18  1  0
  1 25  1  0
  2 26  1  0
  2 27  1  0
  3 28  1  0
  4 29  1  0
  4 30  1  0
  5 31  1  0
  5 32  1  0
  6 33  1  0
  6 34  1  0
 11 35  1  0
 13 36  1  0
 14 37  1  0
 15 38  1  0
 16 39  1  0
 17 40  1  0
 19 41  1  0
 20 42  1  0
 24 43  1  0
 24 44  1  0
M  END
>  <meeko>  (51) 
{"is_sidechain": false}

>  <CID>  (51) 
Z2610310359

>  <pose_index>  (51) 
2

>  <docking_score>  (51) 
-8.896

>  <num_viable_poses>  (51) 
5

>  <rmsd_pairwise_std>  (51) 
0.2766502841780294

>  <rmsd_to_best_std>  (51) 
0.28942895761210463

>  <MWT>  (51) 
324.38799999999964

>  <TPSA>  (51) 
89.96000000000001

>  <logP>  (51) 
2.3052

>  <HBD>  (51) 
3

>  <HBA>  (51) 
6

>  <SMILES>  (51) 
[H]OC([H])([H])C1([H])C([H])([H])N(c2nc(N([H])c3c([H])c([H])c([H])c([H])c3[H])c3c(n2)nc([H])n3[H])C([H])([H])C([H])([H])C1([H])[H]

$$$$
Z2611810317_pose2
     RDKit          3D

 44 47  0  0  0  0  0  0  0  0999 V2000
   -1.4829   44.2678   57.0993 C   0  0  0  0  0  0  0  0  0  0  0  0
   -1.0147   43.5970   55.9377 O   0  0  0  0  0  0  0  0  0  0  0  0
   -0.4616   44.4757   54.9579 C   0  0  0  0  0  0  0  0  0  0  0  0
    1.0326   44.2490   54.7651 C   0  0  0  0  0  0  0  0  0  0  0  0
    1.8946   45.3288   55.4181 C   0  0  0  0  0  0  0  0  0  0  0  0
    3.2254   45.1777   54.6853 C   0  0  0  0  0  0  0  0  0  0  0  0
    2.8079   44.8446   53.3375 N   0  0  0  0  0  0  0  0  0  0  0  0
    3.7423   44.4945   52.3922 C   0  0  0  0  0  0  0  0  0  0  0  0
    4.7535   45.3610   52.1648 N   0  0  0  0  0  0  0  0  0  0  0  0
    5.7332   45.1003   51.2704 C   0  0  0  0  0  0  0  0  0  0  0  0
    6.7770   45.9948   51.0059 N   0  0  0  0  0  0  0  0  0  0  0  0
    7.9378   46.3276   51.7315 C   0  0  0  0  0  0  0  0  0  0  0  0
    7.9256   46.9910   52.9622 C   0  0  0  0  0  0  0  0  0  0  0  0
    9.1150   47.3137   53.6249 C   0  0  0  0  0  0  0  0  0  0  0  0
   10.3432   46.9815   53.0625 C   0  0  0  0  0  0  0  0  0  0  0  0
   10.3819   46.3277   51.8364 C   0  0  0  0  0  0  0  0  0  0  0  0
    9.1892   46.0070   51.1782 C   0  0  0  0  0  0  0  0  0  0  0  0
    5.6210   43.8887   50.6118 C   0  0  0  0  0  0  0  0  0  0  0  0
    6.3526   43.2254   49.6642 N   0  0  0  0  0  0  0  0  0  0  0  0
    5.7223   42.0399   49.4062 C   0  0  0  0  0  0  0  0  0  0  0  0
    4.6353   41.9014   50.1304 N   0  0  0  0  0  0  0  0  0  0  0  0
    4.5661   43.0436   50.8876 C   0  0  0  0  0  0  0  0  0  0  0  0
    3.6050   43.3181   51.7778 N   0  0  0  0  0  0  0  0  0  0  0  0
    1.4626   44.2850   53.2908 C   0  0  0  0  0  0  0  0  0  0  0  0
   -1.0508   43.7963   57.9943 H   0  0  0  0  0  0  0  0  0  0  0  0
   -1.1805   45.3247   57.0594 H   0  0  0  0  0  0  0  0  0  0  0  0
   -2.5801   44.2019   57.1437 H   0  0  0  0  0  0  0  0  0  0  0  0
   -0.9731   44.3053   53.9991 H   0  0  0  0  0  0  0  0  0  0  0  0
   -0.6057   45.5085   55.3082 H   0  0  0  0  0  0  0  0  0  0  0  0
    1.1865   43.2602   55.2219 H   0  0  0  0  0  0  0  0  0  0  0  0
    1.4654   46.3293   55.2604 H   0  0  0  0  0  0  0  0  0  0  0  0
    1.9804   45.2209   56.5094 H   0  0  0  0  0  0  0  0  0  0  0  0
    3.7974   46.1171   54.7031 H   0  0  0  0  0  0  0  0  0  0  0  0
    3.8902   44.4260   55.1359 H   0  0  0  0  0  0  0  0  0  0  0  0
    6.6938   46.4924   50.1349 H   0  0  0  0  0  0  0  0  0  0  0  0
    6.9626   47.2646   53.4181 H   0  0  0  0  0  0  0  0  0  0  0  0
    9.0787   47.8321   54.5944 H   0  0  0  0  0  0  0  0  0  0  0  0
   11.2777   47.2345   53.5846 H   0  0  0  0  0  0  0  0  0  0  0  0
   11.3489   46.0627   51.3839 H   0  0  0  0  0  0  0  0  0  0  0  0
    9.2322   45.4928   50.2068 H   0  0  0  0  0  0  0  0  0  0  0  0
    7.2076   43.5411   49.2315 H   0  0  0  0  0  0  0  0  0  0  0  0
    6.0813   41.2941   48.6817 H   0  0  0  0  0  0  0  0  0  0  0  0
    0.7909   44.9268   52.7018 H   0  0  0  0  0  0  0  0  0  0  0  0
    1.4287   43.2951   52.8123 H   0  0  0  0  0  0  0  0  0  0  0  0
  1  2  1  0
  2  3  1  0
  3  4  1  0
  4  5  1  0
  5  6  1  0
  6  7  1  0
  7  8  1  0
  8  9  2  0
  9 10  1  0
 10 11  1  0
 11 12  1  0
 12 13  2  0
 13 14  1  0
 14 15  2  0
 15 16  1  0
 16 17  2  0
 10 18  2  0
 18 19  1  0
 19 20  1  0
 20 21  2  0
 21 22  1  0
 22 23  2  0
  7 24  1  0
 24  4  1  0
 23  8  1  0
 17 12  1  0
 22 18  1  0
  1 25  1  0
  1 26  1  0
  1 27  1  0
  3 28  1  0
  3 29  1  0
  4 30  1  0
  5 31  1  0
  5 32  1  0
  6 33  1  0
  6 34  1  0
 11 35  1  0
 13 36  1  0
 14 37  1  0
 15 38  1  0
 16 39  1  0
 17 40  1  0
 19 41  1  0
 20 42  1  0
 24 43  1  0
 24 44  1  0
M  END
>  <meeko>  (52) 
{"is_sidechain": false}

>  <CID>  (52) 
Z2611810317

>  <pose_index>  (52) 
2

>  <docking_score>  (52) 
-8.534

>  <num_viable_poses>  (52) 
5

>  <rmsd_pairwise_std>  (52) 
0.36457318370768793

>  <rmsd_to_best_std>  (52) 
0.3204312562437324

>  <MWT>  (52) 
324.38799999999964

>  <TPSA>  (52) 
78.96

>  <logP>  (52) 
2.5692000000000004

>  <HBD>  (52) 
2

>  <HBA>  (52) 
6

>  <SMILES>  (52) 
[H]c1c([H])c([H])c(N([H])c2nc(N3C([H])([H])C([H])([H])C([H])(C([H])([H])OC([H])([H])[H])C3([H])[H])nc3nc([H])n([H])c23)c([H])c1[H]

$$$$
Z2613622720_pose2
     RDKit          3D

 41 44  0  0  0  0  0  0  0  0999 V2000
    0.8641   45.6155   56.8422 F   0  0  0  0  0  0  0  0  0  0  0  0
    1.2861   45.9184   55.5857 C   0  0  0  0  0  0  0  0  0  0  0  0
    1.4481   44.6402   54.7727 C   0  0  0  0  0  0  0  0  0  0  0  0
    2.7107   44.7243   53.8909 C   0  0  0  0  0  0  0  0  0  0  0  0
    2.7963   43.5449   53.0111 N   0  0  0  0  0  0  0  0  0  0  0  0
    3.9567   43.5010   52.2252 C   0  0  0  0  0  0  0  0  0  0  0  0
    4.6506   44.6537   52.0697 N   0  0  0  0  0  0  0  0  0  0  0  0
    5.8012   44.6826   51.3657 C   0  0  0  0  0  0  0  0  0  0  0  0
    6.4765   45.9034   51.2282 N   0  0  0  0  0  0  0  0  0  0  0  0
    7.6523   46.3066   51.8980 C   0  0  0  0  0  0  0  0  0  0  0  0
    7.6323   46.9456   53.1433 C   0  0  0  0  0  0  0  0  0  0  0  0
    8.8199   47.3672   53.7464 C   0  0  0  0  0  0  0  0  0  0  0  0
   10.0381   47.1735   53.0996 C   0  0  0  0  0  0  0  0  0  0  0  0
   10.0688   46.5697   51.8456 C   0  0  0  0  0  0  0  0  0  0  0  0
    8.8801   46.1505   51.2450 C   0  0  0  0  0  0  0  0  0  0  0  0
    6.1939   43.4997   50.7871 C   0  0  0  0  0  0  0  0  0  0  0  0
    7.2281   43.1159   49.9793 N   0  0  0  0  0  0  0  0  0  0  0  0
    7.0777   41.7805   49.7294 C   0  0  0  0  0  0  0  0  0  0  0  0
    6.0078   41.2925   50.3196 N   0  0  0  0  0  0  0  0  0  0  0  0
    5.4476   42.3593   50.9745 C   0  0  0  0  0  0  0  0  0  0  0  0
    4.3246   42.3252   51.7037 N   0  0  0  0  0  0  0  0  0  0  0  0
    1.5616   43.2637   52.2612 C   0  0  0  0  0  0  0  0  0  0  0  0
    0.3611   43.2377   53.2180 C   0  0  0  0  0  0  0  0  0  0  0  0
    0.2613   44.4553   53.9738 O   0  0  0  0  0  0  0  0  0  0  0  0
    0.5451   46.5693   55.0987 H   0  0  0  0  0  0  0  0  0  0  0  0
    2.2546   46.4369   55.6433 H   0  0  0  0  0  0  0  0  0  0  0  0
    1.5727   43.7757   55.4413 H   0  0  0  0  0  0  0  0  0  0  0  0
    2.6638   45.6345   53.2750 H   0  0  0  0  0  0  0  0  0  0  0  0
    3.5994   44.7545   54.5384 H   0  0  0  0  0  0  0  0  0  0  0  0
    5.7659   46.6331   51.2825 H   0  0  0  0  0  0  0  0  0  0  0  0
    6.6723   47.1175   53.6520 H   0  0  0  0  0  0  0  0  0  0  0  0
    8.7928   47.8527   54.7331 H   0  0  0  0  0  0  0  0  0  0  0  0
   10.9740   47.4970   53.5786 H   0  0  0  0  0  0  0  0  0  0  0  0
   11.0285   46.4229   51.3285 H   0  0  0  0  0  0  0  0  0  0  0  0
    8.9090   45.6917   50.2457 H   0  0  0  0  0  0  0  0  0  0  0  0
    7.9652   43.7178   49.6386 H   0  0  0  0  0  0  0  0  0  0  0  0
    7.7666   41.1866   49.1108 H   0  0  0  0  0  0  0  0  0  0  0  0
    1.4080   44.0476   51.5050 H   0  0  0  0  0  0  0  0  0  0  0  0
    1.6528   42.2840   51.7693 H   0  0  0  0  0  0  0  0  0  0  0  0
   -0.5600   43.1049   52.6317 H   0  0  0  0  0  0  0  0  0  0  0  0
    0.5011   42.4052   53.9234 H   0  0  0  0  0  0  0  0  0  0  0  0
  1  2  1  0
  2  3  1  0
  3  4  1  0
  4  5  1  0
  5  6  1  0
  6  7  2  0
  7  8  1  0
  8  9  1  0
  9 10  1  0
 10 11  2  0
 11 12  1  0
 12 13  2  0
 13 14  1  0
 14 15  2  0
  8 16  2  0
 16 17  1  0
 17 18  1  0
 18 19  2  0
 19 20  1  0
 20 21  2  0
  5 22  1  0
 22 23  1  0
 23 24  1  0
 24  3  1  0
 21  6  1  0
 15 10  1  0
 20 16  1  0
  2 25  1  0
  2 26  1  0
  3 27  1  0
  4 28  1  0
  4 29  1  0
  9 30  1  0
 11 31  1  0
 12 32  1  0
 13 33  1  0
 14 34  1  0
 15 35  1  0
 17 36  1  0
 18 37  1  0
 22 38  1  0
 22 39  1  0
 23 40  1  0
 23 41  1  0
M  END
>  <meeko>  (53) 
{"is_sidechain": false}

>  <CID>  (53) 
Z2613622720

>  <pose_index>  (53) 
2

>  <docking_score>  (53) 
-8.947

>  <num_viable_poses>  (53) 
6

>  <rmsd_pairwise_std>  (53) 
0.3344968372300249

>  <rmsd_to_best_std>  (53) 
0.17884659288336296

>  <MWT>  (53) 
328.3509999999998

>  <TPSA>  (53) 
78.96000000000001

>  <logP>  (53) 
2.2712000000000003

>  <HBD>  (53) 
2

>  <HBA>  (53) 
6

>  <SMILES>  (53) 
[H]c1c([H])c([H])c(N([H])c2nc(N3C([H])([H])C([H])([H])OC([H])(C([H])([H])F)C3([H])[H])nc3nc([H])n([H])c23)c([H])c1[H]

$$$$
Z2654643499_pose1
     RDKit          3D

 50 53  0  0  0  0  0  0  0  0999 V2000
   -2.4750   44.7420   56.3160 C   0  0  0  0  0  0  0  0  0  0  0  0
   -1.6450   45.5070   57.1280 C   0  0  0  0  0  0  0  0  0  0  0  0
   -0.2830   45.6180   56.8280 C   0  0  0  0  0  0  0  0  0  0  0  0
    0.2790   44.9790   55.7300 C   0  0  0  0  0  0  0  0  0  0  0  0
    1.5900   45.1080   55.4740 N   0  0  0  0  0  0  0  0  0  0  0  0
    2.0870   44.4820   54.4010 C   0  0  0  0  0  0  0  0  0  0  0  0
    3.4530   44.6700   54.2020 N   0  0  0  0  0  0  0  0  0  0  0  0
    3.8610   46.0160   53.8260 C   0  0  0  0  0  0  0  0  0  0  0  0
    4.8460   46.5910   54.8580 C   0  0  0  0  0  0  0  0  0  0  0  0
    6.1530   45.7950   54.9180 C   0  0  0  0  0  0  0  0  0  0  0  0
    6.8710   45.7110   53.5630 C   0  0  0  0  0  0  0  0  0  0  0  0
    7.4500   47.0720   53.1130 N   0  0  0  0  0  4  0  0  0  0  0  0
    8.5320   47.6710   53.9900 C   0  0  0  0  0  0  0  0  0  0  0  0
    9.8110   46.8490   53.9130 C   0  0  0  0  0  0  0  0  0  0  0  0
   10.1700   46.4400   52.4860 C   0  0  0  0  0  0  0  0  0  0  0  0
    9.3840   47.2420   51.4590 C   0  0  0  0  0  0  0  0  0  0  0  0
    7.8780   47.0740   51.6400 C   0  0  0  0  0  0  0  0  0  0  0  0
    5.8860   45.1870   52.4960 C   0  0  0  0  0  0  0  0  0  0  0  0
    4.5540   45.9480   52.4530 C   0  0  0  0  0  0  0  0  0  0  0  0
    1.3700   43.7190   53.5710 N   0  0  0  0  0  0  0  0  0  0  0  0
    0.0560   43.6040   53.8470 C   0  0  0  0  0  0  0  0  0  0  0  0
   -0.5640   44.2140   54.9230 C   0  0  0  0  0  0  0  0  0  0  0  0
   -1.9390   44.0910   55.2080 C   0  0  0  0  0  0  0  0  0  0  0  0
   -3.5467   44.6518   56.5472 H   0  0  0  0  0  0  0  0  0  0  0  0
   -2.0591   46.0247   58.0058 H   0  0  0  0  0  0  0  0  0  0  0  0
    0.3603   46.2279   57.4793 H   0  0  0  0  0  0  0  0  0  0  0  0
    3.6750   43.9290   53.5370 H   0  0  0  0  0  0  0  0  0  0  0  0
    2.9749   46.6665   53.7852 H   0  0  0  0  0  0  0  0  0  0  0  0
    5.0772   47.6313   54.5853 H   0  0  0  0  0  0  0  0  0  0  0  0
    4.3697   46.5323   55.8478 H   0  0  0  0  0  0  0  0  0  0  0  0
    6.8254   46.2803   55.6408 H   0  0  0  0  0  0  0  0  0  0  0  0
    5.8976   44.7679   55.2176 H   0  0  0  0  0  0  0  0  0  0  0  0
    7.7190   45.0201   53.6789 H   0  0  0  0  0  0  0  0  0  0  0  0
    6.6750   47.7420   53.1750 H   0  0  0  0  0  0  0  0  0  0  0  0
    8.7423   48.6967   53.6526 H   0  0  0  0  0  0  0  0  0  0  0  0
    8.1784   47.6739   55.0316 H   0  0  0  0  0  0  0  0  0  0  0  0
   10.6375   47.4465   54.3253 H   0  0  0  0  0  0  0  0  0  0  0  0
    9.6455   45.9265   54.4889 H   0  0  0  0  0  0  0  0  0  0  0  0
   11.2448   46.6104   52.3255 H   0  0  0  0  0  0  0  0  0  0  0  0
    9.9176   45.3769   52.3589 H   0  0  0  0  0  0  0  0  0  0  0  0
    9.6390   48.3065   51.5676 H   0  0  0  0  0  0  0  0  0  0  0  0
    9.6514   46.8713   50.4585 H   0  0  0  0  0  0  0  0  0  0  0  0
    7.3683   47.9033   51.1276 H   0  0  0  0  0  0  0  0  0  0  0  0
    7.6014   46.0980   51.2147 H   0  0  0  0  0  0  0  0  0  0  0  0
    6.3658   45.2724   51.5099 H   0  0  0  0  0  0  0  0  0  0  0  0
    5.6508   44.1459   52.7621 H   0  0  0  0  0  0  0  0  0  0  0  0
    4.7463   46.9737   52.1053 H   0  0  0  0  0  0  0  0  0  0  0  0
    3.8840   45.4045   51.7705 H   0  0  0  0  0  0  0  0  0  0  0  0
   -0.5609   42.9879   53.1763 H   0  0  0  0  0  0  0  0  0  0  0  0
   -2.5857   43.4834   54.5579 H   0  0  0  0  0  0  0  0  0  0  0  0
  1  2  2  0
  2  3  1  0
  3  4  2  0
  4  5  1  0
  5  6  2  0
  6  7  1  0
  7  8  1  0
  8  9  1  0
  9 10  1  0
 10 11  1  0
 11 12  1  0
 12 13  1  0
 13 14  1  0
 14 15  1  0
 15 16  1  0
 16 17  1  0
 11 18  1  0
 18 19  1  0
  6 20  1  0
 20 21  2  0
 21 22  1  0
 22 23  2  0
 23  1  1  0
 22  4  1  0
 19  8  1  0
 17 12  1  0
  1 24  1  0
  2 25  1  0
  3 26  1  0
  7 27  1  0
  8 28  1  0
  9 29  1  0
  9 30  1  0
 10 31  1  0
 10 32  1  0
 11 33  1  0
 12 34  1  0
 13 35  1  0
 13 36  1  0
 14 37  1  0
 14 38  1  0
 15 39  1  0
 15 40  1  0
 16 41  1  0
 16 42  1  0
 17 43  1  0
 17 44  1  0
 18 45  1  0
 18 46  1  0
 19 47  1  0
 19 48  1  0
 21 49  1  0
 23 50  1  0
M  CHG  1  12   1
M  END
>  <meeko>  (54) 
{"is_sidechain": false}

>  <CID>  (54) 
Z2654643499

>  <pose_index>  (54) 
1

>  <docking_score>  (54) 
-8.597

>  <num_viable_poses>  (54) 
8

>  <rmsd_pairwise_std>  (54) 
0.4371638152211644

>  <rmsd_to_best_std>  (54) 
0.543590049351836

>  <MWT>  (54) 
311.4529999999995

>  <TPSA>  (54) 
42.25

>  <logP>  (54) 
2.4216999999999995

>  <HBD>  (54) 
2

>  <HBA>  (54) 
3

>  <SMILES>  (54) 
[H]c1c([H])c([H])c2c([H])nc(N([H])C3([H])C([H])([H])C([H])([H])C([H])([N+]4([H])C([H])([H])C([H])([H])C([H])([H])C([H])([H])C4([H])[H])C([H])([H])C3([H])[H])nc2c1[H]

$$$$
Z2684222059_pose1
     RDKit          3D

 46 48  0  0  0  0  0  0  0  0999 V2000
    1.9470   44.3350   51.1910 N   0  0  0  0  0  4  0  0  0  0  0  0
    1.1190   45.3040   51.9540 C   0  0  0  0  0  0  0  0  0  0  0  0
    1.6590   45.5140   53.4000 C   0  0  0  0  0  0  0  0  0  0  0  0
    3.0940   45.8310   53.4890 N   0  0  0  0  0  0  0  0  0  0  0  0
    3.7170   46.9210   52.9300 C   0  0  0  0  0  0  0  0  0  0  0  0
    3.1580   47.9850   52.7050 O   0  0  0  0  0  0  0  0  0  0  0  0
    5.2180   46.7480   52.7090 C   0  0  0  0  0  0  0  0  0  0  0  0
    6.0440   47.2210   53.5870 N   0  0  0  0  0  0  0  0  0  0  0  0
    7.4180   47.0420   53.3200 C   0  0  0  0  0  0  0  0  0  0  0  0
    8.3530   47.5410   54.2310 C   0  0  0  0  0  0  0  0  0  0  0  0
    9.7230   47.3930   53.9950 C   0  0  0  0  0  0  0  0  0  0  0  0
   10.1730   46.7420   52.8460 C   0  0  0  0  0  0  0  0  0  0  0  0
    9.2540   46.2390   51.9270 C   0  0  0  0  0  0  0  0  0  0  0  0
    7.8860   46.3980   52.1700 C   0  0  0  0  0  0  0  0  0  0  0  0
    6.8850   45.9020   51.2080 C   0  0  0  0  0  0  0  0  0  0  0  0
    7.1940   45.3750   50.1460 O   0  0  0  0  0  0  0  0  0  0  0  0
    5.5770   46.0960   51.5650 N   0  0  0  0  0  0  0  0  0  0  0  0
    1.3010   44.3040   54.3230 C   0  0  0  0  0  0  0  0  0  0  0  0
   -0.1790   43.8750   54.2370 C   0  0  0  0  0  0  0  0  0  0  0  0
   -1.1210   44.9240   54.8260 C   0  0  0  0  0  0  0  0  0  0  0  0
   -0.7620   45.2500   56.2750 C   0  0  0  0  0  0  0  0  0  0  0  0
    0.7130   45.6040   56.4490 C   0  0  0  0  0  0  0  0  0  0  0  0
    1.6300   44.5640   55.8120 C   0  0  0  0  0  0  0  0  0  0  0  0
    2.9310   44.3340   51.4850 H   0  0  0  0  0  0  0  0  0  0  0  0
    1.8970   44.4810   50.1790 H   0  0  0  0  0  0  0  0  0  0  0  0
    1.5710   43.3870   51.3830 H   0  0  0  0  0  0  0  0  0  0  0  0
    1.1257   46.2699   51.4277 H   0  0  0  0  0  0  0  0  0  0  0  0
    0.0985   44.8997   52.0256 H   0  0  0  0  0  0  0  0  0  0  0  0
    1.1407   46.4148   53.7604 H   0  0  0  0  0  0  0  0  0  0  0  0
    3.7380   45.0460   53.6380 H   0  0  0  0  0  0  0  0  0  0  0  0
    8.0083   48.0542   55.1408 H   0  0  0  0  0  0  0  0  0  0  0  0
   10.4494   47.7916   54.7185 H   0  0  0  0  0  0  0  0  0  0  0  0
   11.2519   46.6259   52.6657 H   0  0  0  0  0  0  0  0  0  0  0  0
    9.6010   45.7223   51.0200 H   0  0  0  0  0  0  0  0  0  0  0  0
    4.8780   45.7430   50.9250 H   0  0  0  0  0  0  0  0  0  0  0  0
    1.9338   43.4917   53.9359 H   0  0  0  0  0  0  0  0  0  0  0  0
   -0.4410   43.7175   53.1803 H   0  0  0  0  0  0  0  0  0  0  0  0
   -0.2964   42.9506   54.8216 H   0  0  0  0  0  0  0  0  0  0  0  0
   -1.0524   45.8431   54.2255 H   0  0  0  0  0  0  0  0  0  0  0  0
   -2.1434   44.5186   54.8071 H   0  0  0  0  0  0  0  0  0  0  0  0
   -1.3708   46.1047   56.6051 H   0  0  0  0  0  0  0  0  0  0  0  0
   -0.9626   44.3522   56.8780 H   0  0  0  0  0  0  0  0  0  0  0  0
    0.9019   46.5799   55.9780 H   0  0  0  0  0  0  0  0  0  0  0  0
    0.9302   45.6335   57.5269 H   0  0  0  0  0  0  0  0  0  0  0  0
    2.6684   44.9195   55.8853 H   0  0  0  0  0  0  0  0  0  0  0  0
    1.4826   43.6177   56.3531 H   0  0  0  0  0  0  0  0  0  0  0  0
  1  2  1  0
  2  3  1  0
  3  4  1  0
  4  5  1  0
  5  6  2  0
  5  7  1  0
  7  8  2  0
  8  9  1  0
  9 10  2  0
 10 11  1  0
 11 12  2  0
 12 13  1  0
 13 14  2  0
 14 15  1  0
 15 16  2  0
 15 17  1  0
  3 18  1  0
 18 19  1  0
 19 20  1  0
 20 21  1  0
 21 22  1  0
 22 23  1  0
 17  7  1  0
 23 18  1  0
 14  9  1  0
  1 24  1  0
  1 25  1  0
  1 26  1  0
  2 27  1  0
  2 28  1  0
  3 29  1  0
  4 30  1  0
 10 31  1  0
 11 32  1  0
 12 33  1  0
 13 34  1  0
 17 35  1  0
 18 36  1  0
 19 37  1  0
 19 38  1  0
 20 39  1  0
 20 40  1  0
 21 41  1  0
 21 42  1  0
 22 43  1  0
 22 44  1  0
 23 45  1  0
 23 46  1  0
M  CHG  1   1   1
M  END
>  <meeko>  (55) 
{"is_sidechain": false}

>  <CID>  (55) 
Z2684222059

>  <pose_index>  (55) 
1

>  <docking_score>  (55) 
-8.704

>  <num_viable_poses>  (55) 
5

>  <rmsd_pairwise_std>  (55) 
0.4091435402600296

>  <rmsd_to_best_std>  (55) 
0.5355318959833706

>  <MWT>  (55) 
315.3969999999996

>  <TPSA>  (55) 
102.48999999999998

>  <logP>  (55) 
0.8436999999999997

>  <HBD>  (55) 
3

>  <HBA>  (55) 
3

>  <SMILES>  (55) 
[H]c1c([H])c([H])c2c(=O)n([H])c(C(=O)N([H])C([H])(C3([H])C([H])([H])C([H])([H])C([H])([H])C([H])([H])C3([H])[H])C([H])([H])[N+]([H])([H])[H])nc2c1[H]

$$$$
Z2994634090_pose2
     RDKit          3D

 40 42  0  0  0  0  0  0  0  0999 V2000
    1.3162   44.3686   52.2816 C   0  0  0  0  0  0  0  0  0  0  0  0
    2.3763   43.9400   53.1266 O   0  0  0  0  0  0  0  0  0  0  0  0
    2.6465   44.7142   54.2321 C   0  0  0  0  0  0  0  0  0  0  0  0
    1.7441   44.9807   55.2594 C   0  0  0  0  0  0  0  0  0  0  0  0
    2.1639   45.7795   56.3102 C   0  0  0  0  0  0  0  0  0  0  0  0
    3.3947   46.3193   56.4008 N   0  0  0  0  0  0  0  0  0  0  0  0
    4.2584   46.0484   55.3872 C   0  0  0  0  0  0  0  0  0  0  0  0
    3.9407   45.2596   54.2876 C   0  0  0  0  0  0  0  0  0  0  0  0
    4.8213   44.9656   53.2253 N   0  0  0  0  0  0  0  0  0  0  0  0
    4.8773   45.5742   51.9908 C   0  0  0  0  0  0  0  0  0  0  0  0
    4.1873   46.5118   51.6119 O   0  0  0  0  0  0  0  0  0  0  0  0
    5.9030   45.0169   51.0748 C   0  0  0  0  0  0  0  0  0  0  0  0
    5.6603   43.8272   50.3737 C   0  0  0  0  0  0  0  0  0  0  0  0
    4.2297   42.8803   50.5842 Cl  0  0  0  0  0  0  0  0  0  0  0  0
    6.6295   43.3229   49.4960 C   0  0  0  0  0  0  0  0  0  0  0  0
    7.8416   43.9899   49.3209 C   0  0  0  0  0  0  0  0  0  0  0  0
    8.0904   45.1685   50.0202 C   0  0  0  0  0  0  0  0  0  0  0  0
    7.1174   45.6931   50.8768 C   0  0  0  0  0  0  0  0  0  0  0  0
    7.3894   46.8344   51.5881 O   0  0  0  0  0  0  0  0  0  0  0  0
    8.2215   46.5683   52.7259 C   0  0  0  0  0  0  0  0  0  0  0  0
    9.5949   47.1476   52.5332 C   0  0  0  0  0  0  0  0  0  0  0  0
   10.6738   46.9655   53.5704 C   0  0  0  0  0  0  0  0  0  0  0  0
   10.8013   46.2906   52.2295 C   0  0  0  0  0  0  0  0  0  0  0  0
    0.4544   44.6664   52.8970 H   0  0  0  0  0  0  0  0  0  0  0  0
    1.6509   45.2264   51.6798 H   0  0  0  0  0  0  0  0  0  0  0  0
    1.0231   43.5447   51.6144 H   0  0  0  0  0  0  0  0  0  0  0  0
    0.7249   44.5675   55.2367 H   0  0  0  0  0  0  0  0  0  0  0  0
    1.4486   45.9858   57.1200 H   0  0  0  0  0  0  0  0  0  0  0  0
    5.2693   46.4790   55.4401 H   0  0  0  0  0  0  0  0  0  0  0  0
    5.5413   44.2855   53.4578 H   0  0  0  0  0  0  0  0  0  0  0  0
    6.4327   42.3939   48.9410 H   0  0  0  0  0  0  0  0  0  0  0  0
    8.5989   43.5865   48.6325 H   0  0  0  0  0  0  0  0  0  0  0  0
    9.0529   45.6871   49.8986 H   0  0  0  0  0  0  0  0  0  0  0  0
    7.7635   47.0169   53.6198 H   0  0  0  0  0  0  0  0  0  0  0  0
    8.3134   45.4788   52.8470 H   0  0  0  0  0  0  0  0  0  0  0  0
    9.1146   48.0063   52.0412 H   0  0  0  0  0  0  0  0  0  0  0  0
   11.3357   47.8054   53.8281 H   0  0  0  0  0  0  0  0  0  0  0  0
   10.6965   46.6259   54.6164 H   0  0  0  0  0  0  0  0  0  0  0  0
   11.5555   46.6382   51.5082 H   0  0  0  0  0  0  0  0  0  0  0  0
   10.9550   45.2553   51.8910 H   0  0  0  0  0  0  0  0  0  0  0  0
  1  2  1  0
  2  3  1  0
  3  4  2  0
  4  5  1  0
  5  6  2  0
  6  7  1  0
  7  8  2  0
  8  9  1  0
  9 10  1  0
 10 11  2  0
 10 12  1  0
 12 13  2  0
 13 14  1  0
 13 15  1  0
 15 16  2  0
 16 17  1  0
 17 18  2  0
 18 19  1  0
 19 20  1  0
 20 21  1  0
 21 22  1  0
 22 23  1  0
  8  3  1  0
 18 12  1  0
 23 21  1  0
  1 24  1  0
  1 25  1  0
  1 26  1  0
  4 27  1  0
  5 28  1  0
  7 29  1  0
  9 30  1  0
 15 31  1  0
 16 32  1  0
 17 33  1  0
 20 34  1  0
 20 35  1  0
 21 36  1  0
 22 37  1  0
 22 38  1  0
 23 39  1  0
 23 40  1  0
M  END
>  <meeko>  (56) 
{"is_sidechain": false}

>  <CID>  (56) 
Z2994634090

>  <pose_index>  (56) 
2

>  <docking_score>  (56) 
-8.519

>  <num_viable_poses>  (56) 
5

>  <rmsd_pairwise_std>  (56) 
0.36552980454583034

>  <rmsd_to_best_std>  (56) 
0.0761449738027956

>  <MWT>  (56) 
332.78699999999975

>  <TPSA>  (56) 
60.45

>  <logP>  (56) 
3.7847000000000017

>  <HBD>  (56) 
1

>  <HBA>  (56) 
4

>  <SMILES>  (56) 
[H]c1nc([H])c(N([H])C(=O)c2c(Cl)c([H])c([H])c([H])c2OC([H])([H])C2([H])C([H])([H])C2([H])[H])c(OC([H])([H])[H])c1[H]

$$$$
Z2996605995_pose1
     RDKit          3D

 42 44  0  0  0  0  0  0  0  0999 V2000
    0.4110   45.2810   56.5460 C   0  0  0  0  0  0  0  0  0  0  0  0
    1.5060   45.0740   55.5440 C   0  0  0  0  0  0  0  0  0  0  0  0
    1.3630   44.1420   54.5320 C   0  0  0  0  0  0  0  0  0  0  0  0
    2.4100   43.9740   53.6310 C   0  0  0  0  0  0  0  0  0  0  0  0
    3.5910   44.7210   53.7540 C   0  0  0  0  0  0  0  0  0  0  0  0
    4.5800   44.4420   52.7840 N   0  0  0  0  0  0  0  0  0  0  0  0
    4.5930   44.8160   51.4550 C   0  0  0  0  0  0  0  0  0  0  0  0
    3.7840   45.5320   50.8850 O   0  0  0  0  0  0  0  0  0  0  0  0
    5.7860   44.3580   50.6960 C   0  0  0  0  0  0  0  0  0  0  0  0
    5.8050   43.1040   50.0710 C   0  0  0  0  0  0  0  0  0  0  0  0
    4.5200   41.9570   50.2160 Cl  0  0  0  0  0  0  0  0  0  0  0  0
    6.9280   42.7090   49.3320 C   0  0  0  0  0  0  0  0  0  0  0  0
    8.0370   43.5490   49.2200 C   0  0  0  0  0  0  0  0  0  0  0  0
    8.0290   44.7940   49.8460 C   0  0  0  0  0  0  0  0  0  0  0  0
    6.9030   45.2000   50.5640 C   0  0  0  0  0  0  0  0  0  0  0  0
    6.9450   46.4120   51.2060 O   0  0  0  0  0  0  0  0  0  0  0  0
    7.6610   46.3010   52.4450 C   0  0  0  0  0  0  0  0  0  0  0  0
    8.8980   47.1380   52.3310 C   0  0  0  0  0  0  0  0  0  0  0  0
    9.8740   47.2280   53.4750 C   0  0  0  0  0  0  0  0  0  0  0  0
   10.2550   46.4920   52.2190 C   0  0  0  0  0  0  0  0  0  0  0  0
    3.6380   45.6760   54.7780 C   0  0  0  0  0  0  0  0  0  0  0  0
    4.7450   46.6690   54.9660 C   0  0  0  0  0  0  0  0  0  0  0  0
    2.6130   45.8360   55.6690 N   0  0  0  0  0  0  0  0  0  0  0  0
    0.8244   45.2028   57.5623 H   0  0  0  0  0  0  0  0  0  0  0  0
   -0.0308   46.2786   56.4056 H   0  0  0  0  0  0  0  0  0  0  0  0
   -0.3644   44.5135   56.4056 H   0  0  0  0  0  0  0  0  0  0  0  0
    0.4423   43.5470   54.4415 H   0  0  0  0  0  0  0  0  0  0  0  0
    2.3104   43.2464   52.8121 H   0  0  0  0  0  0  0  0  0  0  0  0
    5.4830   44.1570   53.1510 H   0  0  0  0  0  0  0  0  0  0  0  0
    6.9357   41.7275   48.8354 H   0  0  0  0  0  0  0  0  0  0  0  0
    8.9148   43.2292   48.6393 H   0  0  0  0  0  0  0  0  0  0  0  0
    8.9062   45.4539   49.7746 H   0  0  0  0  0  0  0  0  0  0  0  0
    7.0361   46.6665   53.2732 H   0  0  0  0  0  0  0  0  0  0  0  0
    7.9223   45.2518   52.6470 H   0  0  0  0  0  0  0  0  0  0  0  0
    8.3306   47.8665   51.7332 H   0  0  0  0  0  0  0  0  0  0  0  0
   10.3520   48.1890   53.7156 H   0  0  0  0  0  0  0  0  0  0  0  0
    9.8430   46.9753   54.5451 H   0  0  0  0  0  0  0  0  0  0  0  0
   11.0113   46.9152   51.5416 H   0  0  0  0  0  0  0  0  0  0  0  0
   10.6175   45.4788   51.9910 H   0  0  0  0  0  0  0  0  0  0  0  0
    4.9190   46.8250   56.0409 H   0  0  0  0  0  0  0  0  0  0  0  0
    5.6639   46.2868   54.4975 H   0  0  0  0  0  0  0  0  0  0  0  0
    4.4645   47.6239   54.4975 H   0  0  0  0  0  0  0  0  0  0  0  0
  1  2  1  0
  2  3  2  0
  3  4  1  0
  4  5  2  0
  5  6  1  0
  6  7  1  0
  7  8  2  0
  7  9  1  0
  9 10  2  0
 10 11  1  0
 10 12  1  0
 12 13  2  0
 13 14  1  0
 14 15  2  0
 15 16  1  0
 16 17  1  0
 17 18  1  0
 18 19  1  0
 19 20  1  0
  5 21  1  0
 21 22  1  0
 21 23  2  0
 23  2  1  0
 15  9  1  0
 20 18  1  0
  1 24  1  0
  1 25  1  0
  1 26  1  0
  3 27  1  0
  4 28  1  0
  6 29  1  0
 12 30  1  0
 13 31  1  0
 14 32  1  0
 17 33  1  0
 17 34  1  0
 18 35  1  0
 19 36  1  0
 19 37  1  0
 20 38  1  0
 20 39  1  0
 22 40  1  0
 22 41  1  0
 22 42  1  0
M  END
>  <meeko>  (57) 
{"is_sidechain": false}

>  <CID>  (57) 
Z2996605995

>  <pose_index>  (57) 
1

>  <docking_score>  (57) 
-9.115

>  <num_viable_poses>  (57) 
8

>  <rmsd_pairwise_std>  (57) 
0.30480905158716326

>  <rmsd_to_best_std>  (57) 
0.24916638087640602

>  <MWT>  (57) 
330.81499999999966

>  <TPSA>  (57) 
51.22

>  <logP>  (57) 
4.392940000000003

>  <HBD>  (57) 
1

>  <HBA>  (57) 
3

>  <SMILES>  (57) 
[H]c1c(C([H])([H])[H])nc(C([H])([H])[H])c(N([H])C(=O)c2c(Cl)c([H])c([H])c([H])c2OC([H])([H])C2([H])C([H])([H])C2([H])[H])c1[H]

$$$$
Z3000762692_pose2
     RDKit          3D

 45 48  0  0  0  0  0  0  0  0999 V2000
    6.2732   43.9012   54.2382 O   0  0  0  0  0  0  0  0  0  0  0  0
    6.1414   44.7490   53.3581 C   0  0  0  0  0  0  0  0  0  0  0  0
    4.9187   45.1060   52.8607 N   0  0  0  0  0  0  0  0  0  0  0  0
    3.6680   44.4833   53.2666 C   0  0  0  0  0  0  0  0  0  0  0  0
    2.9461   45.3149   54.3293 C   0  0  0  0  0  0  0  0  0  0  0  0
    2.1769   46.3508   53.9120 N   0  0  0  0  0  0  0  0  0  0  0  0
    1.5423   47.0532   54.8675 C   0  0  0  0  0  0  0  0  0  0  0  0
    1.6358   46.7658   56.2078 C   0  0  0  0  0  0  0  0  0  0  0  0
    2.4321   45.6953   56.5322 C   0  0  0  0  0  0  0  0  0  0  0  0
    3.0910   44.9548   55.6240 N   0  0  0  0  0  0  0  0  0  0  0  0
    2.7798   44.3557   52.0471 C   0  0  0  0  0  0  0  0  0  0  0  0
    2.8124   43.1095   51.1934 C   0  0  0  0  0  0  0  0  0  0  0  0
    1.6069   43.4054   52.0394 C   0  0  0  0  0  0  0  0  0  0  0  0
    7.3519   45.4367   52.7924 C   0  0  0  0  0  0  0  0  0  0  0  0
    7.5321   46.7831   53.1624 C   0  0  0  0  0  0  0  0  0  0  0  0
    8.6224   47.5179   52.6992 C   0  0  0  0  0  0  0  0  0  0  0  0
    9.5501   46.9184   51.8556 C   0  0  0  0  0  0  0  0  0  0  0  0
    9.3901   45.5827   51.4787 C   0  0  0  0  0  0  0  0  0  0  0  0
    8.3062   44.8285   51.9522 C   0  0  0  0  0  0  0  0  0  0  0  0
    8.1135   43.5218   51.5821 O   0  0  0  0  0  0  0  0  0  0  0  0
    7.4899   43.3007   50.3167 C   0  0  0  0  0  0  0  0  0  0  0  0
    8.4989   42.6392   49.4265 C   0  0  0  0  0  0  0  0  0  0  0  0
    8.2401   42.4734   47.9519 C   0  0  0  0  0  0  0  0  0  0  0  0
    9.2790   43.4524   48.4255 C   0  0  0  0  0  0  0  0  0  0  0  0
    4.8568   45.8067   52.1273 H   0  0  0  0  0  0  0  0  0  0  0  0
    3.8890   43.4968   53.7002 H   0  0  0  0  0  0  0  0  0  0  0  0
    0.9153   47.9029   54.5595 H   0  0  0  0  0  0  0  0  0  0  0  0
    1.1069   47.3551   56.9714 H   0  0  0  0  0  0  0  0  0  0  0  0
    2.5367   45.4289   57.5943 H   0  0  0  0  0  0  0  0  0  0  0  0
    2.9124   45.4320   51.8623 H   0  0  0  0  0  0  0  0  0  0  0  0
    2.7489   43.1917   50.0983 H   0  0  0  0  0  0  0  0  0  0  0  0
    3.4987   42.2561   51.0901 H   0  0  0  0  0  0  0  0  0  0  0  0
    0.6613   43.7037   51.5631 H   0  0  0  0  0  0  0  0  0  0  0  0
    1.0463   42.8575   52.8111 H   0  0  0  0  0  0  0  0  0  0  0  0
    6.8000   47.2634   53.8282 H   0  0  0  0  0  0  0  0  0  0  0  0
    8.7480   48.5684   53.0003 H   0  0  0  0  0  0  0  0  0  0  0  0
   10.4101   47.4954   51.4848 H   0  0  0  0  0  0  0  0  0  0  0  0
   10.1224   45.1170   50.8028 H   0  0  0  0  0  0  0  0  0  0  0  0
    6.6125   42.6487   50.4392 H   0  0  0  0  0  0  0  0  0  0  0  0
    7.1523   44.2520   49.8796 H   0  0  0  0  0  0  0  0  0  0  0  0
    8.7556   41.9561   50.2496 H   0  0  0  0  0  0  0  0  0  0  0  0
    8.5480   41.5497   47.4401 H   0  0  0  0  0  0  0  0  0  0  0  0
    7.3511   42.5347   47.3070 H   0  0  0  0  0  0  0  0  0  0  0  0
   10.3465   43.2444   48.2604 H   0  0  0  0  0  0  0  0  0  0  0  0
    9.4641   44.5256   48.2707 H   0  0  0  0  0  0  0  0  0  0  0  0
  1  2  2  0
  2  3  1  0
  3  4  1  0
  4  5  1  0
  5  6  2  0
  6  7  1  0
  7  8  2  0
  8  9  1  0
  9 10  2  0
  4 11  1  0
 11 12  1  0
 12 13  1  0
  2 14  1  0
 14 15  2  0
 15 16  1  0
 16 17  2  0
 17 18  1  0
 18 19  2  0
 19 20  1  0
 20 21  1  0
 21 22  1  0
 22 23  1  0
 23 24  1  0
 10  5  1  0
 13 11  1  0
 19 14  1  0
 24 22  1  0
  3 25  1  0
  4 26  1  0
  7 27  1  0
  8 28  1  0
  9 29  1  0
 11 30  1  0
 12 31  1  0
 12 32  1  0
 13 33  1  0
 13 34  1  0
 15 35  1  0
 16 36  1  0
 17 37  1  0
 18 38  1  0
 21 39  1  0
 21 40  1  0
 22 41  1  0
 23 42  1  0
 23 43  1  0
 24 44  1  0
 24 45  1  0
M  END
>  <meeko>  (58) 
{"is_sidechain": false}

>  <CID>  (58) 
Z3000762692

>  <pose_index>  (58) 
2

>  <docking_score>  (58) 
-7.905

>  <num_viable_poses>  (58) 
6

>  <rmsd_pairwise_std>  (58) 
0.28693762691659846

>  <rmsd_to_best_std>  (58) 
0.1227972233230735

>  <MWT>  (58) 
323.3959999999996

>  <TPSA>  (58) 
64.11

>  <logP>  (58) 
3.1465000000000023

>  <HBD>  (58) 
1

>  <HBA>  (58) 
4

>  <SMILES>  (58) 
[H]c1nc(C([H])(N([H])C(=O)c2c([H])c([H])c([H])c([H])c2OC([H])([H])C2([H])C([H])([H])C2([H])[H])C2([H])C([H])([H])C2([H])[H])nc([H])c1[H]

$$$$
Z3006954377_pose1
     RDKit          3D

 40 42  0  0  0  0  0  0  0  0999 V2000
    1.2130   45.4700   56.2920 C   0  0  0  0  0  0  0  0  0  0  0  0
    1.9560   44.8680   55.1560 C   0  0  0  0  0  0  0  0  0  0  0  0
    1.3760   43.9190   54.4100 N   0  0  0  0  0  0  0  0  0  0  0  0
    2.3130   43.6090   53.4990 N   0  0  0  0  0  0  0  0  0  0  0  0
    3.4710   44.3290   53.6340 C   0  0  0  0  0  0  0  0  0  0  0  0
    4.5680   44.1840   52.8100 N   0  0  0  0  0  0  0  0  0  0  0  0
    4.5310   44.5340   51.4700 C   0  0  0  0  0  0  0  0  0  0  0  0
    3.5430   44.9840   50.8950 O   0  0  0  0  0  0  0  0  0  0  0  0
    5.7890   44.2960   50.7160 C   0  0  0  0  0  0  0  0  0  0  0  0
    5.9890   43.1020   50.0100 C   0  0  0  0  0  0  0  0  0  0  0  0
    4.7780   41.8770   49.8560 Cl  0  0  0  0  0  0  0  0  0  0  0  0
    7.1940   42.8810   49.3280 C   0  0  0  0  0  0  0  0  0  0  0  0
    8.2030   43.8460   49.3400 C   0  0  0  0  0  0  0  0  0  0  0  0
    8.0090   45.0390   50.0280 C   0  0  0  0  0  0  0  0  0  0  0  0
    6.8170   45.2550   50.7290 C   0  0  0  0  0  0  0  0  0  0  0  0
    6.6450   46.4580   51.3650 O   0  0  0  0  0  0  0  0  0  0  0  0
    7.2790   46.4840   52.6550 C   0  0  0  0  0  0  0  0  0  0  0  0
    8.4520   47.4130   52.5960 C   0  0  0  0  0  0  0  0  0  0  0  0
    9.8610   46.8770   52.5980 C   0  0  0  0  0  0  0  0  0  0  0  0
    9.3390   47.6190   53.7980 C   0  0  0  0  0  0  0  0  0  0  0  0
    3.2810   45.1590   54.7200 C   0  0  0  0  0  0  0  0  0  0  0  0
    4.2410   46.1260   55.3000 C   0  0  0  0  0  0  0  0  0  0  0  0
    1.6460   45.1192   57.2404 H   0  0  0  0  0  0  0  0  0  0  0  0
    1.2867   46.5662   56.2386 H   0  0  0  0  0  0  0  0  0  0  0  0
    0.1559   45.1706   56.2386 H   0  0  0  0  0  0  0  0  0  0  0  0
    2.1270   42.8910   52.8030 H   0  0  0  0  0  0  0  0  0  0  0  0
    5.3850   43.7080   53.1770 H   0  0  0  0  0  0  0  0  0  0  0  0
    7.3456   41.9399   48.7791 H   0  0  0  0  0  0  0  0  0  0  0  0
    9.1479   43.6634   48.8073 H   0  0  0  0  0  0  0  0  0  0  0  0
    8.7916   45.8120   50.0212 H   0  0  0  0  0  0  0  0  0  0  0  0
    6.5638   46.8388   53.4117 H   0  0  0  0  0  0  0  0  0  0  0  0
    7.6157   45.4728   52.9271 H   0  0  0  0  0  0  0  0  0  0  0  0
    7.8699   48.0736   51.9366 H   0  0  0  0  0  0  0  0  0  0  0  0
   10.0366   45.7926   52.6557 H   0  0  0  0  0  0  0  0  0  0  0  0
   10.7341   46.9836   51.9375 H   0  0  0  0  0  0  0  0  0  0  0  0
    9.1329   47.0770   54.7328 H   0  0  0  0  0  0  0  0  0  0  0  0
    9.6724   48.4924   54.3776 H   0  0  0  0  0  0  0  0  0  0  0  0
    4.1925   46.0772   56.3978 H   0  0  0  0  0  0  0  0  0  0  0  0
    5.2592   45.8768   54.9665 H   0  0  0  0  0  0  0  0  0  0  0  0
    3.9844   47.1423   54.9665 H   0  0  0  0  0  0  0  0  0  0  0  0
  1  2  1  0
  2  3  2  0
  3  4  1  0
  4  5  1  0
  5  6  1  0
  6  7  1  0
  7  8  2  0
  7  9  1  0
  9 10  2  0
 10 11  1  0
 10 12  1  0
 12 13  2  0
 13 14  1  0
 14 15  2  0
 15 16  1  0
 16 17  1  0
 17 18  1  0
 18 19  1  0
 19 20  1  0
  5 21  2  0
 21 22  1  0
 21  2  1  0
 15  9  1  0
 20 18  1  0
  1 23  1  0
  1 24  1  0
  1 25  1  0
  4 26  1  0
  6 27  1  0
 12 28  1  0
 13 29  1  0
 14 30  1  0
 17 31  1  0
 17 32  1  0
 18 33  1  0
 19 34  1  0
 19 35  1  0
 20 36  1  0
 20 37  1  0
 22 38  1  0
 22 39  1  0
 22 40  1  0
M  END
>  <meeko>  (59) 
{"is_sidechain": false}

>  <CID>  (59) 
Z3006954377

>  <pose_index>  (59) 
1

>  <docking_score>  (59) 
-8.779

>  <num_viable_poses>  (59) 
6

>  <rmsd_pairwise_std>  (59) 
0.3008883563413618

>  <rmsd_to_best_std>  (59) 
0.3292021045029524

>  <MWT>  (59) 
319.7919999999997

>  <TPSA>  (59) 
67.01

>  <logP>  (59) 
3.721040000000003

>  <HBD>  (59) 
2

>  <HBA>  (59) 
3

>  <SMILES>  (59) 
[H]c1c([H])c(Cl)c(C(=O)N([H])c2c(C([H])([H])[H])c(C([H])([H])[H])nn2[H])c(OC([H])([H])C2([H])C([H])([H])C2([H])[H])c1[H]

$$$$
Z30167053_pose1
     RDKit          3D

 44 46  0  0  0  0  0  0  0  0999 V2000
    1.5220   42.6640   50.5100 O   0  0  0  0  0  0  0  0  0  0  0  0
    2.1000   42.5620   51.5890 C   0  0  0  0  0  0  0  0  0  0  0  0
    1.5400   43.1440   52.8920 C   0  0  0  0  0  0  0  0  0  0  0  0
    1.4990   44.5610   52.9360 O   0  0  0  0  0  0  0  0  0  0  0  0
    2.6770   45.2310   53.1130 C   0  0  0  0  0  0  0  0  0  0  0  0
    2.8470   46.3400   52.2830 C   0  0  0  0  0  0  0  0  0  0  0  0
    4.0050   47.1200   52.3590 C   0  0  0  0  0  0  0  0  0  0  0  0
    5.0190   46.8180   53.2750 C   0  0  0  0  0  0  0  0  0  0  0  0
    6.1800   47.6090   53.2950 N   0  0  0  0  0  0  0  0  0  0  0  0
    7.5430   47.2940   53.1480 C   0  0  0  0  0  0  0  0  0  0  0  0
    8.4100   47.1150   54.2300 C   0  0  0  0  0  0  0  0  0  0  0  0
    9.7670   46.8410   54.0360 C   0  0  0  0  0  0  0  0  0  0  0  0
   10.2820   46.7500   52.7470 C   0  0  0  0  0  0  0  0  0  0  0  0
    9.4390   46.9310   51.6540 C   0  0  0  0  0  0  0  0  0  0  0  0
    8.0820   47.2040   51.8550 C   0  0  0  0  0  0  0  0  0  0  0  0
    4.8370   45.7070   54.1030 C   0  0  0  0  0  0  0  0  0  0  0  0
    3.6780   44.9220   54.0300 C   0  0  0  0  0  0  0  0  0  0  0  0
    3.3120   41.9110   51.7330 N   0  0  0  0  0  0  0  0  0  0  0  0
    4.0750   41.5010   50.5750 C   0  0  0  0  0  0  0  0  0  0  0  0
    5.2250   42.4430   50.3410 C   0  0  0  0  0  0  0  0  0  0  0  0
    6.3200   42.0440   49.5670 C   0  0  0  0  0  0  0  0  0  0  0  0
    7.3440   42.9490   49.3450 C   0  0  0  0  0  0  0  0  0  0  0  0
    7.3500   44.2100   49.8290 N   0  0  0  0  0  0  0  0  0  0  0  0
    6.2840   44.5790   50.5690 C   0  0  0  0  0  0  0  0  0  0  0  0
    5.2100   43.7460   50.8460 C   0  0  0  0  0  0  0  0  0  0  0  0
    0.5151   42.7668   53.0237 H   0  0  0  0  0  0  0  0  0  0  0  0
    2.2228   42.8268   53.6940 H   0  0  0  0  0  0  0  0  0  0  0  0
    2.0606   46.6036   51.5604 H   0  0  0  0  0  0  0  0  0  0  0  0
    4.1207   47.9843   51.6885 H   0  0  0  0  0  0  0  0  0  0  0  0
    6.0020   48.6020   53.3910 H   0  0  0  0  0  0  0  0  0  0  0  0
    8.0165   47.1913   55.2544 H   0  0  0  0  0  0  0  0  0  0  0  0
   10.4281   46.6972   54.9033 H   0  0  0  0  0  0  0  0  0  0  0  0
   11.3498   46.5361   52.5921 H   0  0  0  0  0  0  0  0  0  0  0  0
    9.8401   46.8593   50.6323 H   0  0  0  0  0  0  0  0  0  0  0  0
    7.4256   47.3507   50.9846 H   0  0  0  0  0  0  0  0  0  0  0  0
    5.6207   45.4427   54.8282 H   0  0  0  0  0  0  0  0  0  0  0  0
    3.5588   44.0580   54.7002 H   0  0  0  0  0  0  0  0  0  0  0  0
    3.8170   42.0070   52.6020 H   0  0  0  0  0  0  0  0  0  0  0  0
    4.4661   40.4862   50.7400 H   0  0  0  0  0  0  0  0  0  0  0  0
    3.4181   41.5155   49.6928 H   0  0  0  0  0  0  0  0  0  0  0  0
    6.3665   41.0302   49.1427 H   0  0  0  0  0  0  0  0  0  0  0  0
    8.2022   42.6222   48.7395 H   0  0  0  0  0  0  0  0  0  0  0  0
    6.2654   45.6005   50.9767 H   0  0  0  0  0  0  0  0  0  0  0  0
    4.3637   44.1037   51.4508 H   0  0  0  0  0  0  0  0  0  0  0  0
  1  2  2  0
  2  3  1  0
  3  4  1  0
  4  5  1  0
  5  6  2  0
  6  7  1  0
  7  8  2  0
  8  9  1  0
  9 10  1  0
 10 11  2  0
 11 12  1  0
 12 13  2  0
 13 14  1  0
 14 15  2  0
  8 16  1  0
 16 17  2  0
  2 18  1  0
 18 19  1  0
 19 20  1  0
 20 21  2  0
 21 22  1  0
 22 23  2  0
 23 24  1  0
 24 25  2  0
 17  5  1  0
 25 20  1  0
 15 10  1  0
  3 26  1  0
  3 27  1  0
  6 28  1  0
  7 29  1  0
  9 30  1  0
 11 31  1  0
 12 32  1  0
 13 33  1  0
 14 34  1  0
 15 35  1  0
 16 36  1  0
 17 37  1  0
 18 38  1  0
 19 39  1  0
 19 40  1  0
 21 41  1  0
 22 42  1  0
 24 43  1  0
 25 44  1  0
M  END
>  <meeko>  (60) 
{"is_sidechain": false}

>  <CID>  (60) 
Z30167053

>  <pose_index>  (60) 
1

>  <docking_score>  (60) 
-8.831

>  <num_viable_poses>  (60) 
5

>  <rmsd_pairwise_std>  (60) 
0.5407486605917496

>  <rmsd_to_best_std>  (60) 
0.8104751843461658

>  <MWT>  (60) 
333.3909999999997

>  <TPSA>  (60) 
63.25

>  <logP>  (60) 
3.5204000000000013

>  <HBD>  (60) 
2

>  <HBA>  (60) 
4

>  <SMILES>  (60) 
[H]c1nc([H])c([H])c(C([H])([H])N([H])C(=O)C([H])([H])Oc2c([H])c([H])c(N([H])c3c([H])c([H])c([H])c([H])c3[H])c([H])c2[H])c1[H]

$$$$
Z3071600379_pose1
     RDKit          3D

 39 41  0  0  0  0  0  0  0  0999 V2000
    7.7860   44.7680   49.6490 O   0  0  0  0  0  0  0  0  0  0  0  0
    7.0250   43.8310   49.8560 C   0  0  0  0  0  0  0  0  0  0  0  0
    7.2380   42.5830   49.3270 N   0  0  0  0  0  0  0  0  0  0  0  0
    6.3990   41.5310   49.5520 C   0  0  0  0  0  0  0  0  0  0  0  0
    5.3340   41.5950   50.2750 N   0  0  0  0  0  0  0  0  0  0  0  0
    5.0260   42.8310   50.8670 C   0  0  0  0  0  0  0  0  0  0  0  0
    3.8880   42.9370   51.6650 C   0  0  0  0  0  0  0  0  0  0  0  0
    3.5450   44.1560   52.2600 C   0  0  0  0  0  0  0  0  0  0  0  0
    4.3270   45.2930   52.0450 C   0  0  0  0  0  0  0  0  0  0  0  0
    4.0300   46.5470   52.6450 N   0  0  0  0  0  0  0  0  0  0  0  0
    4.2170   46.8430   54.2830 S   0  0  0  0  0  0  0  0  0  0  0  0
    4.3330   48.2610   54.5410 O   0  0  0  0  0  0  0  0  0  0  0  0
    3.1640   46.0750   54.9180 O   0  0  0  0  0  0  0  0  0  0  0  0
    5.7510   46.0350   54.7160 C   0  0  0  0  0  0  0  0  0  0  0  0
    6.9820   46.8760   54.4470 C   0  0  0  0  0  0  0  0  0  0  0  0
    6.8090   47.5790   53.2150 O   0  0  0  0  0  0  0  0  0  0  0  0
    8.0250   47.7110   52.4720 C   0  0  0  0  0  0  0  0  0  0  0  0
    8.9270   46.5490   52.7420 C   0  0  0  0  0  0  0  0  0  0  0  0
   10.1850   46.3730   51.9280 C   0  0  0  0  0  0  0  0  0  0  0  0
   10.2790   46.7390   53.3830 C   0  0  0  0  0  0  0  0  0  0  0  0
    5.4870   45.1930   51.2780 C   0  0  0  0  0  0  0  0  0  0  0  0
    5.8200   43.9680   50.6910 C   0  0  0  0  0  0  0  0  0  0  0  0
    8.0630   42.4750   48.7550 H   0  0  0  0  0  0  0  0  0  0  0  0
    6.6475   40.5659   49.0863 H   0  0  0  0  0  0  0  0  0  0  0  0
    3.2534   42.0535   51.8286 H   0  0  0  0  0  0  0  0  0  0  0  0
    2.6536   44.2193   52.9013 H   0  0  0  0  0  0  0  0  0  0  0  0
    3.2830   47.1050   52.2300 H   0  0  0  0  0  0  0  0  0  0  0  0
    5.7244   45.7922   55.7885 H   0  0  0  0  0  0  0  0  0  0  0  0
    5.8308   45.1387   54.0834 H   0  0  0  0  0  0  0  0  0  0  0  0
    7.1214   47.5971   55.2659 H   0  0  0  0  0  0  0  0  0  0  0  0
    7.8671   46.2262   54.3813 H   0  0  0  0  0  0  0  0  0  0  0  0
    7.7917   47.7473   51.3976 H   0  0  0  0  0  0  0  0  0  0  0  0
    8.5330   48.6372   52.7788 H   0  0  0  0  0  0  0  0  0  0  0  0
    8.0449   45.9337   52.9729 H   0  0  0  0  0  0  0  0  0  0  0  0
   10.4871   45.3698   51.5929 H   0  0  0  0  0  0  0  0  0  0  0  0
   10.5715   46.8025   50.9920 H   0  0  0  0  0  0  0  0  0  0  0  0
   10.6499   46.0034   54.1119 H   0  0  0  0  0  0  0  0  0  0  0  0
   10.7629   47.5470   53.9513 H   0  0  0  0  0  0  0  0  0  0  0  0
    6.1350   46.0704   51.1357 H   0  0  0  0  0  0  0  0  0  0  0  0
  1  2  2  0
  2  3  1  0
  3  4  1  0
  4  5  2  0
  5  6  1  0
  6  7  2  0
  7  8  1  0
  8  9  2  0
  9 10  1  0
 10 11  1  0
 11 12  2  0
 11 13  2  0
 11 14  1  0
 14 15  1  0
 15 16  1  0
 16 17  1  0
 17 18  1  0
 18 19  1  0
 19 20  1  0
  9 21  1  0
 21 22  2  0
 22  2  1  0
 22  6  1  0
 20 18  1  0
  3 23  1  0
  4 24  1  0
  7 25  1  0
  8 26  1  0
 10 27  1  0
 14 28  1  0
 14 29  1  0
 15 30  1  0
 15 31  1  0
 17 32  1  0
 17 33  1  0
 18 34  1  0
 19 35  1  0
 19 36  1  0
 20 37  1  0
 20 38  1  0
 21 39  1  0
M  END
>  <meeko>  (61) 
{"is_sidechain": false}

>  <CID>  (61) 
Z3071600379

>  <pose_index>  (61) 
1

>  <docking_score>  (61) 
-8.112

>  <num_viable_poses>  (61) 
6

>  <rmsd_pairwise_std>  (61) 
0.25481319778480727

>  <rmsd_to_best_std>  (61) 
0.20909607067467148

>  <MWT>  (61) 
323.37399999999974

>  <TPSA>  (61) 
101.14999999999999

>  <logP>  (61) 
1.0913999999999995

>  <HBD>  (61) 
2

>  <HBA>  (61) 
5

>  <SMILES>  (61) 
[H]c1c(N([H])S(=O)(=O)C([H])([H])C([H])([H])OC([H])([H])C2([H])C([H])([H])C2([H])[H])c([H])c2c(=O)n([H])c([H])nc2c1[H]

$$$$
Z3091154570_pose2
     RDKit          3D

 45 48  0  0  0  0  0  0  0  0999 V2000
    2.6612   43.7304   51.6334 O   0  0  0  0  0  0  0  0  0  0  0  0
    3.4664   44.4254   52.2440 C   0  0  0  0  0  0  0  0  0  0  0  0
    3.1631   45.2489   53.3034 N   0  0  0  0  0  0  0  0  0  0  0  0
    1.9217   45.4021   53.8921 C   0  0  0  0  0  0  0  0  0  0  0  0
    1.5428   44.6855   54.9523 N   0  0  0  0  0  0  0  0  0  0  0  0
    0.3092   44.9212   55.4495 C   0  0  0  0  0  0  0  0  0  0  0  0
   -0.5617   45.8419   54.9152 C   0  0  0  0  0  0  0  0  0  0  0  0
   -1.8081   46.1551   55.3766 O   0  0  0  0  0  0  0  0  0  0  0  0
   -1.8888   46.9605   56.4864 C   0  0  0  0  0  0  0  0  0  0  0  0
   -1.0822   48.0912   56.6272 C   0  0  0  0  0  0  0  0  0  0  0  0
   -1.1731   48.8630   57.7853 C   0  0  0  0  0  0  0  0  0  0  0  0
   -2.0553   48.4933   58.8030 C   0  0  0  0  0  0  0  0  0  0  0  0
   -2.8418   47.3480   58.6679 C   0  0  0  0  0  0  0  0  0  0  0  0
   -2.7531   46.5747   57.5104 C   0  0  0  0  0  0  0  0  0  0  0  0
   -0.0661   46.5420   53.8407 C   0  0  0  0  0  0  0  0  0  0  0  0
    1.1614   46.3434   53.3070 N   0  0  0  0  0  0  0  0  0  0  0  0
    4.9044   44.4611   51.8735 C   0  0  0  0  0  0  0  0  0  0  0  0
    5.6211   43.6044   50.9876 C   0  0  0  0  0  0  0  0  0  0  0  0
    6.9165   44.0659   50.9859 C   0  0  0  0  0  0  0  0  0  0  0  0
    6.9389   45.1317   51.8344 N   0  0  0  0  0  0  0  0  0  0  0  0
    8.0487   45.9970   52.1767 C   0  0  0  0  0  0  0  0  0  0  0  0
    7.9385   47.3953   51.5548 C   0  0  0  0  0  0  0  0  0  0  0  0
    8.7617   48.3204   52.4540 C   0  0  0  0  0  0  0  0  0  0  0  0
    9.2235   47.4707   53.6321 C   0  0  0  0  0  0  0  0  0  0  0  0
    8.2536   46.2997   53.6617 C   0  0  0  0  0  0  0  0  0  0  0  0
    5.7358   45.3954   52.3736 N   0  0  0  0  0  0  0  0  0  0  0  0
    3.8554   45.8617   53.6964 H   0  0  0  0  0  0  0  0  0  0  0  0
   -0.0163   44.3460   56.3288 H   0  0  0  0  0  0  0  0  0  0  0  0
   -0.3789   48.3719   55.8293 H   0  0  0  0  0  0  0  0  0  0  0  0
   -0.5502   49.7626   57.8971 H   0  0  0  0  0  0  0  0  0  0  0  0
   -2.1305   49.1062   59.7133 H   0  0  0  0  0  0  0  0  0  0  0  0
   -3.5310   47.0555   59.4738 H   0  0  0  0  0  0  0  0  0  0  0  0
   -3.3622   45.6647   57.4059 H   0  0  0  0  0  0  0  0  0  0  0  0
   -0.7076   47.3115   53.3865 H   0  0  0  0  0  0  0  0  0  0  0  0
    5.2205   42.7502   50.4220 H   0  0  0  0  0  0  0  0  0  0  0  0
    7.7633   43.6573   50.4150 H   0  0  0  0  0  0  0  0  0  0  0  0
    8.8809   45.3921   51.7876 H   0  0  0  0  0  0  0  0  0  0  0  0
    8.3460   47.3928   50.5330 H   0  0  0  0  0  0  0  0  0  0  0  0
    6.8914   47.7255   51.4863 H   0  0  0  0  0  0  0  0  0  0  0  0
    9.6297   48.7129   51.9040 H   0  0  0  0  0  0  0  0  0  0  0  0
    8.1681   49.1829   52.7911 H   0  0  0  0  0  0  0  0  0  0  0  0
   10.2538   47.1182   53.4768 H   0  0  0  0  0  0  0  0  0  0  0  0
    9.2278   48.0338   54.5771 H   0  0  0  0  0  0  0  0  0  0  0  0
    8.6894   45.4367   54.1863 H   0  0  0  0  0  0  0  0  0  0  0  0
    7.3178   46.5208   54.1959 H   0  0  0  0  0  0  0  0  0  0  0  0
  1  2  2  0
  2  3  1  0
  3  4  1  0
  4  5  2  0
  5  6  1  0
  6  7  2  0
  7  8  1  0
  8  9  1  0
  9 10  2  0
 10 11  1  0
 11 12  2  0
 12 13  1  0
 13 14  2  0
  7 15  1  0
 15 16  2  0
  2 17  1  0
 17 18  1  0
 18 19  2  0
 19 20  1  0
 20 21  1  0
 21 22  1  0
 22 23  1  0
 23 24  1  0
 24 25  1  0
 20 26  1  0
 16  4  1  0
 26 17  2  0
 14  9  1  0
 25 21  1  0
  3 27  1  0
  6 28  1  0
 10 29  1  0
 11 30  1  0
 12 31  1  0
 13 32  1  0
 14 33  1  0
 15 34  1  0
 18 35  1  0
 19 36  1  0
 21 37  1  0
 22 38  1  0
 22 39  1  0
 23 40  1  0
 23 41  1  0
 24 42  1  0
 24 43  1  0
 25 44  1  0
 25 45  1  0
M  END
>  <meeko>  (62) 
{"is_sidechain": false}

>  <CID>  (62) 
Z3091154570

>  <pose_index>  (62) 
2

>  <docking_score>  (62) 
-8.111

>  <num_viable_poses>  (62) 
6

>  <rmsd_pairwise_std>  (62) 
0.42335213724359466

>  <rmsd_to_best_std>  (62) 
0.4198117818447951

>  <MWT>  (62) 
349.3939999999997

>  <TPSA>  (62) 
81.92999999999999

>  <logP>  (62) 
3.8328000000000015

>  <HBD>  (62) 
1

>  <HBA>  (62) 
6

>  <SMILES>  (62) 
[H]c1nc(N([H])C(=O)c2nn(C3([H])C([H])([H])C([H])([H])C([H])([H])C3([H])[H])c([H])c2[H])nc([H])c1Oc1c([H])c([H])c([H])c([H])c1[H]

$$$$
Z31409736_pose1
     RDKit          3D

 53 55  0  0  0  0  0  0  0  0999 V2000
    2.6530   44.6500   53.7640 O   0  0  0  0  0  0  0  0  0  0  0  0
    3.7450   45.2000   53.6470 C   0  0  0  0  0  0  0  0  0  0  0  0
    4.1050   46.4200   54.5020 C   0  0  0  0  0  0  0  0  0  0  0  0
    5.2190   47.1520   53.9230 N   0  0  0  0  0  0  0  0  0  0  0  0
    6.5180   46.8720   54.2810 C   0  0  0  0  0  0  0  0  0  0  0  0
    6.7850   46.0140   55.1200 O   0  0  0  0  0  0  0  0  0  0  0  0
    7.5670   47.6800   53.5180 C   0  0  0  0  0  0  0  0  0  0  0  0
    8.9210   47.6890   54.2500 C   0  0  0  0  0  0  0  0  0  0  0  0
    9.8220   46.5470   53.7940 C   0  0  0  0  0  0  0  0  0  0  0  0
   10.1390   46.6300   52.3000 C   0  0  0  0  0  0  0  0  0  0  0  0
    9.0690   47.3610   51.4890 C   0  0  0  0  0  0  0  0  0  0  0  0
    7.6780   47.1550   52.0740 C   0  0  0  0  0  0  0  0  0  0  0  0
    4.7580   44.8570   52.7670 N   0  0  0  0  0  0  0  0  0  0  0  0
    4.7810   43.8020   51.8390 C   0  0  0  0  0  0  0  0  0  0  0  0
    5.7510   43.8610   50.8300 C   0  0  0  0  0  0  0  0  0  0  0  0
    5.8460   42.8520   49.8630 C   0  0  0  0  0  0  0  0  0  0  0  0
    4.9670   41.7720   49.8920 C   0  0  0  0  0  0  0  0  0  0  0  0
    4.9570   40.7200   49.0220 O   0  0  0  0  0  0  0  0  0  0  0  0
    3.7810   40.5050   48.2360 C   0  0  0  0  0  0  0  0  0  0  0  0
    4.0350   40.5520   46.7450 C   0  0  0  0  0  0  0  0  0  0  0  0
    3.3670   39.6580   45.8960 C   0  0  0  0  0  0  0  0  0  0  0  0
    3.6140   39.6640   44.5230 C   0  0  0  0  0  0  0  0  0  0  0  0
    4.5390   40.5560   43.9850 C   0  0  0  0  0  0  0  0  0  0  0  0
    5.2200   41.4400   44.8180 C   0  0  0  0  0  0  0  0  0  0  0  0
    4.9730   41.4350   46.1920 C   0  0  0  0  0  0  0  0  0  0  0  0
    4.0120   41.7040   50.9070 C   0  0  0  0  0  0  0  0  0  0  0  0
    3.9140   42.7130   51.8730 C   0  0  0  0  0  0  0  0  0  0  0  0
    3.2314   47.0854   54.5650 H   0  0  0  0  0  0  0  0  0  0  0  0
    4.3975   46.0717   55.5036 H   0  0  0  0  0  0  0  0  0  0  0  0
    5.0420   47.6800   53.0780 H   0  0  0  0  0  0  0  0  0  0  0  0
    7.2443   48.7306   53.4724 H   0  0  0  0  0  0  0  0  0  0  0  0
    9.4279   48.6441   54.0481 H   0  0  0  0  0  0  0  0  0  0  0  0
    8.7277   47.5618   55.3254 H   0  0  0  0  0  0  0  0  0  0  0  0
   10.7642   46.5900   54.3601 H   0  0  0  0  0  0  0  0  0  0  0  0
    9.2912   45.6011   53.9771 H   0  0  0  0  0  0  0  0  0  0  0  0
   11.0939   47.1618   52.1758 H   0  0  0  0  0  0  0  0  0  0  0  0
   10.1835   45.5983   51.9210 H   0  0  0  0  0  0  0  0  0  0  0  0
    9.2980   48.4369   51.4851 H   0  0  0  0  0  0  0  0  0  0  0  0
    9.0748   46.9523   50.4678 H   0  0  0  0  0  0  0  0  0  0  0  0
    6.9481   47.6879   51.4469 H   0  0  0  0  0  0  0  0  0  0  0  0
    7.4779   46.0735   52.0930 H   0  0  0  0  0  0  0  0  0  0  0  0
    5.5580   45.4950   52.7490 H   0  0  0  0  0  0  0  0  0  0  0  0
    6.4478   44.7115   50.7966 H   0  0  0  0  0  0  0  0  0  0  0  0
    6.6159   42.9127   49.0797 H   0  0  0  0  0  0  0  0  0  0  0  0
    3.3695   39.5165   48.4882 H   0  0  0  0  0  0  0  0  0  0  0  0
    3.0811   41.3204   48.4710 H   0  0  0  0  0  0  0  0  0  0  0  0
    2.6418   38.9457   46.3163 H   0  0  0  0  0  0  0  0  0  0  0  0
    3.0782   38.9641   43.8649 H   0  0  0  0  0  0  0  0  0  0  0  0
    4.7315   40.5620   42.9020 H   0  0  0  0  0  0  0  0  0  0  0  0
    5.9525   42.1422   44.3934 H   0  0  0  0  0  0  0  0  0  0  0  0
    5.5192   42.1301   46.8466 H   0  0  0  0  0  0  0  0  0  0  0  0
    3.3260   40.8451   50.9490 H   0  0  0  0  0  0  0  0  0  0  0  0
    3.1497   42.6451   52.6612 H   0  0  0  0  0  0  0  0  0  0  0  0
  1  2  2  0
  2  3  1  0
  3  4  1  0
  4  5  1  0
  5  6  2  0
  5  7  1  0
  7  8  1  0
  8  9  1  0
  9 10  1  0
 10 11  1  0
 11 12  1  0
  2 13  1  0
 13 14  1  0
 14 15  2  0
 15 16  1  0
 16 17  2  0
 17 18  1  0
 18 19  1  0
 19 20  1  0
 20 21  2  0
 21 22  1  0
 22 23  2  0
 23 24  1  0
 24 25  2  0
 17 26  1  0
 26 27  2  0
 12  7  1  0
 27 14  1  0
 25 20  1  0
  3 28  1  0
  3 29  1  0
  4 30  1  0
  7 31  1  0
  8 32  1  0
  8 33  1  0
  9 34  1  0
  9 35  1  0
 10 36  1  0
 10 37  1  0
 11 38  1  0
 11 39  1  0
 12 40  1  0
 12 41  1  0
 13 42  1  0
 15 43  1  0
 16 44  1  0
 19 45  1  0
 19 46  1  0
 21 47  1  0
 22 48  1  0
 23 49  1  0
 24 50  1  0
 25 51  1  0
 26 52  1  0
 27 53  1  0
M  END
>  <meeko>  (63) 
{"is_sidechain": false}

>  <CID>  (63) 
Z31409736

>  <pose_index>  (63) 
1

>  <docking_score>  (63) 
-9.101

>  <num_viable_poses>  (63) 
5

>  <rmsd_pairwise_std>  (63) 
0.23788843578091934

>  <rmsd_to_best_std>  (63) 
0.33178868741571454

>  <MWT>  (63) 
366.4609999999997

>  <TPSA>  (63) 
67.43

>  <logP>  (63) 
3.9006000000000025

>  <HBD>  (63) 
2

>  <HBA>  (63) 
3

>  <SMILES>  (63) 
[H]c1c([H])c([H])c(C([H])([H])Oc2c([H])c([H])c(N([H])C(=O)C([H])([H])N([H])C(=O)C3([H])C([H])([H])C([H])([H])C([H])([H])C([H])([H])C3([H])[H])c([H])c2[H])c([H])c1[H]

$$$$
Z321303522_pose3
     RDKit          3D

 45 48  0  0  0  0  0  0  0  0999 V2000
    5.1540   44.6498   54.2014 O   0  0  0  0  0  0  0  0  0  0  0  0
    4.0871   44.5567   53.6044 C   0  0  0  0  0  0  0  0  0  0  0  0
    3.9390   44.4479   52.2362 N   0  0  0  0  0  0  0  0  0  0  0  0
    4.9512   44.4214   51.2508 C   0  0  0  0  0  0  0  0  0  0  0  0
    4.9903   43.5074   50.1970 C   0  0  0  0  0  0  0  0  0  0  0  0
    6.0310   43.5500   49.2667 C   0  0  0  0  0  0  0  0  0  0  0  0
    7.0383   44.5046   49.3874 C   0  0  0  0  0  0  0  0  0  0  0  0
    7.0165   45.4283   50.4338 C   0  0  0  0  0  0  0  0  0  0  0  0
    8.0664   46.3016   50.4340 O   0  0  0  0  0  0  0  0  0  0  0  0
    9.2692   45.9335   51.1104 C   0  0  0  0  0  0  0  0  0  0  0  0
    9.7567   47.0379   52.0579 C   0  0  0  0  0  0  0  0  0  0  0  0
    8.6277   47.7182   52.8241 C   0  0  0  0  0  0  0  0  0  0  0  0
    8.5881   46.9402   54.1170 C   0  0  0  0  0  0  0  0  0  0  0  0
   10.0510   46.6333   54.3403 C   0  0  0  0  0  0  0  0  0  0  0  0
   10.6335   46.4530   53.0422 O   0  0  0  0  0  0  0  0  0  0  0  0
    5.9723   45.3807   51.3609 C   0  0  0  0  0  0  0  0  0  0  0  0
    2.8354   44.5549   54.3454 C   0  0  0  0  0  0  0  0  0  0  0  0
    2.5007   44.9036   55.6449 C   0  0  0  0  0  0  0  0  0  0  0  0
    1.1039   44.6969   55.8235 C   0  0  0  0  0  0  0  0  0  0  0  0
    0.2176   44.8715   56.9025 C   0  0  0  0  0  0  0  0  0  0  0  0
   -1.1370   44.5616   56.7326 C   0  0  0  0  0  0  0  0  0  0  0  0
   -1.6092   44.0850   55.5114 C   0  0  0  0  0  0  0  0  0  0  0  0
   -0.7466   43.9044   54.4266 C   0  0  0  0  0  0  0  0  0  0  0  0
    0.6031   44.2186   54.6142 C   0  0  0  0  0  0  0  0  0  0  0  0
    1.6625   44.1437   53.7450 N   0  0  0  0  0  0  0  0  0  0  0  0
    2.9933   44.3786   51.8931 H   0  0  0  0  0  0  0  0  0  0  0  0
    4.1983   42.7505   50.0987 H   0  0  0  0  0  0  0  0  0  0  0  0
    6.0553   42.8282   48.4369 H   0  0  0  0  0  0  0  0  0  0  0  0
    7.8568   44.5306   48.6530 H   0  0  0  0  0  0  0  0  0  0  0  0
    9.0828   45.0206   51.6952 H   0  0  0  0  0  0  0  0  0  0  0  0
   10.0486   45.7678   50.3521 H   0  0  0  0  0  0  0  0  0  0  0  0
   10.2553   47.7902   51.4291 H   0  0  0  0  0  0  0  0  0  0  0  0
    8.8549   48.7789   53.0063 H   0  0  0  0  0  0  0  0  0  0  0  0
    7.6697   47.7153   52.2835 H   0  0  0  0  0  0  0  0  0  0  0  0
    8.1768   47.5474   54.9369 H   0  0  0  0  0  0  0  0  0  0  0  0
    7.9470   46.0472   54.0792 H   0  0  0  0  0  0  0  0  0  0  0  0
   10.5390   47.4693   54.8627 H   0  0  0  0  0  0  0  0  0  0  0  0
   10.1779   45.7341   54.9611 H   0  0  0  0  0  0  0  0  0  0  0  0
    5.9492   46.1044   52.1889 H   0  0  0  0  0  0  0  0  0  0  0  0
    3.1977   45.2772   56.4096 H   0  0  0  0  0  0  0  0  0  0  0  0
    0.5851   45.2473   57.8688 H   0  0  0  0  0  0  0  0  0  0  0  0
   -1.8356   44.6956   57.5716 H   0  0  0  0  0  0  0  0  0  0  0  0
   -2.6773   43.8473   55.3994 H   0  0  0  0  0  0  0  0  0  0  0  0
   -1.1158   43.5289   53.4608 H   0  0  0  0  0  0  0  0  0  0  0  0
    1.6117   43.8282   52.7841 H   0  0  0  0  0  0  0  0  0  0  0  0
  1  2  2  0
  2  3  1  0
  3  4  1  0
  4  5  2  0
  5  6  1  0
  6  7  2  0
  7  8  1  0
  8  9  1  0
  9 10  1  0
 10 11  1  0
 11 12  1  0
 12 13  1  0
 13 14  1  0
 14 15  1  0
  8 16  2  0
  2 17  1  0
 17 18  2  0
 18 19  1  0
 19 20  2  0
 20 21  1  0
 21 22  2  0
 22 23  1  0
 23 24  2  0
 24 25  1  0
 16  4  1  0
 25 17  1  0
 15 11  1  0
 24 19  1  0
  3 26  1  0
  5 27  1  0
  6 28  1  0
  7 29  1  0
 10 30  1  0
 10 31  1  0
 11 32  1  0
 12 33  1  0
 12 34  1  0
 13 35  1  0
 13 36  1  0
 14 37  1  0
 14 38  1  0
 16 39  1  0
 18 40  1  0
 20 41  1  0
 21 42  1  0
 22 43  1  0
 23 44  1  0
 25 45  1  0
M  END
>  <meeko>  (64) 
{"is_sidechain": false}

>  <CID>  (64) 
Z321303522

>  <pose_index>  (64) 
3

>  <docking_score>  (64) 
-8.584

>  <num_viable_poses>  (64) 
5

>  <rmsd_pairwise_std>  (64) 
0.4982746357766809

>  <rmsd_to_best_std>  (64) 
0.6887583102146827

>  <MWT>  (64) 
336.3909999999996

>  <TPSA>  (64) 
63.35

>  <logP>  (64) 
3.9780000000000024

>  <HBD>  (64) 
2

>  <HBA>  (64) 
3

>  <SMILES>  (64) 
[H]c1c([H])c(OC([H])([H])C2([H])OC([H])([H])C([H])([H])C2([H])[H])c([H])c(N([H])C(=O)c2c([H])c3c([H])c([H])c([H])c([H])c3n2[H])c1[H]

$$$$
Z352550402_pose1
     RDKit          3D

 38 40  0  0  0  0  0  0  0  0999 V2000
    2.0230   42.3080   50.4400 O   0  0  0  0  0  0  0  0  0  0  0  0
    2.9340   42.0520   51.2270 C   0  0  0  0  0  0  0  0  0  0  0  0
    4.2770   41.4460   50.8020 C   0  0  0  0  0  0  0  0  0  0  0  0
    4.8900   42.0470   49.6740 O   0  0  0  0  0  0  0  0  0  0  0  0
    5.8270   43.0180   49.8900 C   0  0  0  0  0  0  0  0  0  0  0  0
    5.4340   44.0100   50.7900 C   0  0  0  0  0  0  0  0  0  0  0  0
    6.2930   45.0670   51.1090 C   0  0  0  0  0  0  0  0  0  0  0  0
    7.5690   45.1550   50.5380 C   0  0  0  0  0  0  0  0  0  0  0  0
    8.3860   46.2510   50.8570 N   0  0  0  0  0  0  0  0  0  0  0  0
    8.8330   46.7670   52.0850 C   0  0  0  0  0  0  0  0  0  0  0  0
    9.9420   46.2560   52.7700 C   0  0  0  0  0  0  0  0  0  0  0  0
   10.3260   46.7750   54.0100 C   0  0  0  0  0  0  0  0  0  0  0  0
    9.5970   47.8100   54.5900 C   0  0  0  0  0  0  0  0  0  0  0  0
    8.4870   48.3260   53.9290 C   0  0  0  0  0  0  0  0  0  0  0  0
    8.1080   47.8050   52.6880 C   0  0  0  0  0  0  0  0  0  0  0  0
    7.9470   44.1610   49.6300 C   0  0  0  0  0  0  0  0  0  0  0  0
    7.0890   43.0990   49.3090 C   0  0  0  0  0  0  0  0  0  0  0  0
    2.8600   42.2850   52.5870 N   0  0  0  0  0  0  0  0  0  0  0  0
    1.7400   42.8120   53.1740 C   0  0  0  0  0  0  0  0  0  0  0  0
    1.6690   43.9610   53.8050 N   0  0  0  0  0  0  0  0  0  0  0  0
    0.3710   44.1180   54.2470 N   0  0  0  0  0  0  0  0  0  0  0  0
   -0.3090   43.0590   53.8700 C   0  0  0  0  0  0  0  0  0  0  0  0
    0.5090   42.2130   53.1950 N   0  0  0  0  0  0  0  0  0  0  0  0
    4.9712   41.5326   51.6508 H   0  0  0  0  0  0  0  0  0  0  0  0
    4.0599   40.4081   50.5095 H   0  0  0  0  0  0  0  0  0  0  0  0
    4.4377   43.9600   51.2536 H   0  0  0  0  0  0  0  0  0  0  0  0
    5.9618   45.8399   51.8182 H   0  0  0  0  0  0  0  0  0  0  0  0
    8.7460   46.7490   50.0500 H   0  0  0  0  0  0  0  0  0  0  0  0
   10.5205   45.4328   52.3253 H   0  0  0  0  0  0  0  0  0  0  0  0
   11.2054   46.3651   54.5283 H   0  0  0  0  0  0  0  0  0  0  0  0
    9.8975   48.2178   55.5664 H   0  0  0  0  0  0  0  0  0  0  0  0
    7.9076   49.1437   54.3825 H   0  0  0  0  0  0  0  0  0  0  0  0
    7.2258   48.2165   52.1758 H   0  0  0  0  0  0  0  0  0  0  0  0
    8.9388   44.2131   49.1572 H   0  0  0  0  0  0  0  0  0  0  0  0
    7.4146   42.3276   48.5957 H   0  0  0  0  0  0  0  0  0  0  0  0
    3.6270   42.0810   53.2140 H   0  0  0  0  0  0  0  0  0  0  0  0
   -1.3765   42.8852   54.0706 H   0  0  0  0  0  0  0  0  0  0  0  0
    0.2930   41.3160   52.7770 H   0  0  0  0  0  0  0  0  0  0  0  0
  1  2  2  0
  2  3  1  0
  3  4  1  0
  4  5  1  0
  5  6  2  0
  6  7  1  0
  7  8  2  0
  8  9  1  0
  9 10  1  0
 10 11  2  0
 11 12  1  0
 12 13  2  0
 13 14  1  0
 14 15  2  0
  8 16  1  0
 16 17  2  0
  2 18  1  0
 18 19  1  0
 19 20  2  0
 20 21  1  0
 21 22  2  0
 22 23  1  0
 17  5  1  0
 23 19  1  0
 15 10  1  0
  3 24  1  0
  3 25  1  0
  6 26  1  0
  7 27  1  0
  9 28  1  0
 11 29  1  0
 12 30  1  0
 13 31  1  0
 14 32  1  0
 15 33  1  0
 16 34  1  0
 17 35  1  0
 18 36  1  0
 22 37  1  0
 23 38  1  0
M  END
>  <meeko>  (65) 
{"is_sidechain": false}

>  <CID>  (65) 
Z352550402

>  <pose_index>  (65) 
1

>  <docking_score>  (65) 
-8.728

>  <num_viable_poses>  (65) 
6

>  <rmsd_pairwise_std>  (65) 
0.3910947063099651

>  <rmsd_to_best_std>  (65) 
0.3226383230460133

>  <MWT>  (65) 
309.3289999999997

>  <TPSA>  (65) 
91.93

>  <logP>  (65) 
2.5657999999999994

>  <HBD>  (65) 
3

>  <HBA>  (65) 
5

>  <SMILES>  (65) 
[H]c1c([H])c([H])c(N([H])c2c([H])c([H])c(OC([H])([H])C(=O)N([H])c3nnc([H])n3[H])c([H])c2[H])c([H])c1[H]

$$$$
Z357964720_pose1
     RDKit          3D

 43 46  0  0  0  0  0  0  0  0999 V2000
   -0.4480   42.0300   53.4420 N   0  0  0  0  0  0  0  0  0  0  0  0
   -1.0540   43.5420   53.8700 S   0  0  0  0  0  0  0  0  0  0  0  0
   -1.5700   43.4540   55.2140 O   0  0  0  0  0  0  0  0  0  0  0  0
   -1.8650   43.9610   52.7490 O   0  0  0  0  0  0  0  0  0  0  0  0
    0.4240   44.5200   53.8950 C   0  0  0  0  0  0  0  0  0  0  0  0
    0.7750   45.2880   52.7880 C   0  0  0  0  0  0  0  0  0  0  0  0
    1.9480   46.0490   52.8270 C   0  0  0  0  0  0  0  0  0  0  0  0
    2.7770   46.0660   53.9630 C   0  0  0  0  0  0  0  0  0  0  0  0
    3.9500   46.8260   53.9190 N   0  0  0  0  0  0  0  0  0  0  0  0
    5.2380   46.5870   53.4500 C   0  0  0  0  0  0  0  0  0  0  0  0
    5.4690   45.8250   52.3810 N   0  0  0  0  0  0  0  0  0  0  0  0
    6.7510   45.6460   51.9930 C   0  0  0  0  0  0  0  0  0  0  0  0
    6.8920   44.7630   50.8250 C   0  0  0  0  0  0  0  0  0  0  0  0
    5.9430   43.7590   50.5720 C   0  0  0  0  0  0  0  0  0  0  0  0
    6.0680   42.9150   49.4670 C   0  0  0  0  0  0  0  0  0  0  0  0
    7.1520   43.0550   48.6020 C   0  0  0  0  0  0  0  0  0  0  0  0
    8.1120   44.0350   48.8450 C   0  0  0  0  0  0  0  0  0  0  0  0
    7.9850   44.8800   49.9510 C   0  0  0  0  0  0  0  0  0  0  0  0
    7.8340   46.2470   52.6480 C   0  0  0  0  0  0  0  0  0  0  0  0
    9.1990   46.1370   52.2750 C   0  0  0  0  0  0  0  0  0  0  0  0
   10.1910   46.7840   53.0070 C   0  0  0  0  0  0  0  0  0  0  0  0
    9.8350   47.5470   54.1090 C   0  0  0  0  0  0  0  0  0  0  0  0
    8.4880   47.6610   54.4660 C   0  0  0  0  0  0  0  0  0  0  0  0
    7.4790   47.0260   53.7510 C   0  0  0  0  0  0  0  0  0  0  0  0
    6.2110   47.1910   54.1470 N   0  0  0  0  0  0  0  0  0  0  0  0
    2.3930   45.2870   55.0630 C   0  0  0  0  0  0  0  0  0  0  0  0
    1.2210   44.5220   55.0390 C   0  0  0  0  0  0  0  0  0  0  0  0
   -1.1340   41.3180   53.6940 H   0  0  0  0  0  0  0  0  0  0  0  0
   -0.1770   41.9680   52.4610 H   0  0  0  0  0  0  0  0  0  0  0  0
    0.1366   45.2962   51.8922 H   0  0  0  0  0  0  0  0  0  0  0  0
    2.2287   46.6483   51.9484 H   0  0  0  0  0  0  0  0  0  0  0  0
    3.9370   47.7220   54.3840 H   0  0  0  0  0  0  0  0  0  0  0  0
    5.0890   43.6359   51.2543 H   0  0  0  0  0  0  0  0  0  0  0  0
    5.3110   42.1394   49.2789 H   0  0  0  0  0  0  0  0  0  0  0  0
    7.2493   42.3929   47.7290 H   0  0  0  0  0  0  0  0  0  0  0  0
    8.9705   44.1438   48.1659 H   0  0  0  0  0  0  0  0  0  0  0  0
    8.7511   45.6466   50.1393 H   0  0  0  0  0  0  0  0  0  0  0  0
    9.4762   45.5339   51.3979 H   0  0  0  0  0  0  0  0  0  0  0  0
   11.2472   46.6909   52.7140 H   0  0  0  0  0  0  0  0  0  0  0  0
   10.6086   48.0600   54.6993 H   0  0  0  0  0  0  0  0  0  0  0  0
    8.2182   48.2722   55.3399 H   0  0  0  0  0  0  0  0  0  0  0  0
    3.0252   45.2766   55.9631 H   0  0  0  0  0  0  0  0  0  0  0  0
    0.9307   43.9263   55.9170 H   0  0  0  0  0  0  0  0  0  0  0  0
  1  2  1  0
  2  3  2  0
  2  4  2  0
  2  5  1  0
  5  6  2  0
  6  7  1  0
  7  8  2  0
  8  9  1  0
  9 10  1  0
 10 11  2  0
 11 12  1  0
 12 13  1  0
 13 14  2  0
 14 15  1  0
 15 16  2  0
 16 17  1  0
 17 18  2  0
 12 19  2  0
 19 20  1  0
 20 21  2  0
 21 22  1  0
 22 23  2  0
 23 24  1  0
 24 25  2  0
  8 26  1  0
 26 27  2  0
 27  5  1  0
 25 10  1  0
 18 13  1  0
 24 19  1  0
  1 28  1  0
  1 29  1  0
  6 30  1  0
  7 31  1  0
  9 32  1  0
 14 33  1  0
 15 34  1  0
 16 35  1  0
 17 36  1  0
 18 37  1  0
 20 38  1  0
 21 39  1  0
 22 40  1  0
 23 41  1  0
 26 42  1  0
 27 43  1  0
M  END
>  <meeko>  (66) 
{"is_sidechain": false}

>  <CID>  (66) 
Z357964720

>  <pose_index>  (66) 
1

>  <docking_score>  (66) 
-10.455

>  <num_viable_poses>  (66) 
5

>  <rmsd_pairwise_std>  (66) 
0.23885129294434224

>  <rmsd_to_best_std>  (66) 
0.28232770586798395

>  <MWT>  (66) 
376.44099999999986

>  <TPSA>  (66) 
97.97

>  <logP>  (66) 
3.687800000000002

>  <HBD>  (66) 
2

>  <HBA>  (66) 
5

>  <SMILES>  (66) 
[H]c1c([H])c([H])c(-c2nc(N([H])c3c([H])c([H])c(S(=O)(=O)N([H])[H])c([H])c3[H])nc3c([H])c([H])c([H])c([H])c23)c([H])c1[H]

$$$$
Z3590543759_pose1
     RDKit          3D

 39 42  0  0  0  0  0  0  0  0999 V2000
    5.3050   46.7890   51.8080 O   0  0  0  0  0  0  0  0  0  0  0  0
    6.0210   45.8700   52.1890 C   0  0  0  0  0  0  0  0  0  0  0  0
    5.5760   44.6440   52.6580 N   0  0  0  0  0  0  0  0  0  0  0  0
    4.2790   44.2230   52.8320 C   0  0  0  0  0  0  0  0  0  0  0  0
    3.8200   43.1310   51.9660 C   0  0  0  0  0  0  0  0  0  0  0  0
    2.5690   42.6330   52.0420 C   0  0  0  0  0  0  0  0  0  0  0  0
    1.6610   43.1750   52.9900 C   0  0  0  0  0  0  0  0  0  0  0  0
    0.4100   42.9050   53.2930 N   0  0  0  0  0  0  0  0  0  0  0  0
    0.0330   43.7590   54.3090 N   0  0  0  0  0  0  0  0  0  0  0  0
    1.0630   44.5240   54.5950 C   0  0  0  0  0  0  0  0  0  0  0  0
    2.1220   44.2010   53.7950 N   0  0  0  0  0  0  0  0  0  0  0  0
    3.4080   44.7250   53.7280 C   0  0  0  0  0  0  0  0  0  0  0  0
    7.5050   46.0330   52.1430 C   0  0  0  0  0  0  0  0  0  0  0  0
    8.1900   46.5630   53.2480 C   0  0  0  0  0  0  0  0  0  0  0  0
    7.4280   46.9230   54.7600 Cl  0  0  0  0  0  0  0  0  0  0  0  0
    9.5720   46.7670   53.1860 C   0  0  0  0  0  0  0  0  0  0  0  0
   10.2780   46.4420   52.0320 C   0  0  0  0  0  0  0  0  0  0  0  0
    9.6120   45.8980   50.9340 C   0  0  0  0  0  0  0  0  0  0  0  0
    8.2280   45.6900   50.9760 C   0  0  0  0  0  0  0  0  0  0  0  0
    7.5130   45.1370   49.9460 O   0  0  0  0  0  0  0  0  0  0  0  0
    7.8170   43.8010   49.5470 C   0  0  0  0  0  0  0  0  0  0  0  0
    6.5520   43.0050   49.6490 C   0  0  0  0  0  0  0  0  0  0  0  0
    6.5980   41.5240   49.9260 C   0  0  0  0  0  0  0  0  0  0  0  0
    6.1700   42.0220   48.5720 C   0  0  0  0  0  0  0  0  0  0  0  0
    6.2990   43.9450   52.7940 H   0  0  0  0  0  0  0  0  0  0  0  0
    4.5188   42.7048   51.2311 H   0  0  0  0  0  0  0  0  0  0  0  0
    2.2551   41.8153   51.3765 H   0  0  0  0  0  0  0  0  0  0  0  0
    1.0709   45.3090   55.3655 H   0  0  0  0  0  0  0  0  0  0  0  0
    3.7110   45.5414   54.4001 H   0  0  0  0  0  0  0  0  0  0  0  0
   10.1032   47.1862   54.0532 H   0  0  0  0  0  0  0  0  0  0  0  0
   11.3634   46.6144   51.9856 H   0  0  0  0  0  0  0  0  0  0  0  0
   10.1776   45.6306   50.0292 H   0  0  0  0  0  0  0  0  0  0  0  0
    8.1842   43.7925   48.5101 H   0  0  0  0  0  0  0  0  0  0  0  0
    8.5993   43.3717   50.1902 H   0  0  0  0  0  0  0  0  0  0  0  0
    6.0639   43.8714   50.1192 H   0  0  0  0  0  0  0  0  0  0  0  0
    7.5668   41.0166   50.0442 H   0  0  0  0  0  0  0  0  0  0  0  0
    6.1578   40.8610   50.6854 H   0  0  0  0  0  0  0  0  0  0  0  0
    6.8260   41.8785   47.7008 H   0  0  0  0  0  0  0  0  0  0  0  0
    5.2875   41.8736   47.9323 H   0  0  0  0  0  0  0  0  0  0  0  0
  1  2  2  0
  2  3  1  0
  3  4  1  0
  4  5  1  0
  5  6  2  0
  6  7  1  0
  7  8  2  0
  8  9  1  0
  9 10  2  0
 10 11  1  0
 11 12  1  0
  2 13  1  0
 13 14  2  0
 14 15  1  0
 14 16  1  0
 16 17  2  0
 17 18  1  0
 18 19  2  0
 19 20  1  0
 20 21  1  0
 21 22  1  0
 22 23  1  0
 23 24  1  0
 12  4  2  0
 19 13  1  0
 24 22  1  0
 11  7  1  0
  3 25  1  0
  5 26  1  0
  6 27  1  0
 10 28  1  0
 12 29  1  0
 16 30  1  0
 17 31  1  0
 18 32  1  0
 21 33  1  0
 21 34  1  0
 22 35  1  0
 23 36  1  0
 23 37  1  0
 24 38  1  0
 24 39  1  0
M  END
>  <meeko>  (67) 
{"is_sidechain": false}

>  <CID>  (67) 
Z3590543759

>  <pose_index>  (67) 
1

>  <docking_score>  (67) 
-8.844

>  <num_viable_poses>  (67) 
7

>  <rmsd_pairwise_std>  (67) 
0.3148689848314788

>  <rmsd_to_best_std>  (67) 
0.4198698988000734

>  <MWT>  (67) 
342.78599999999983

>  <TPSA>  (67) 
68.52000000000001

>  <logP>  (67) 
3.4238000000000017

>  <HBD>  (67) 
1

>  <HBA>  (67) 
5

>  <SMILES>  (67) 
[H]c1c([H])c(Cl)c(C(=O)N([H])c2c([H])c([H])c3nnc([H])n3c2[H])c(OC([H])([H])C2([H])C([H])([H])C2([H])[H])c1[H]

$$$$
Z3950664500_pose1
     RDKit          3D

 46 49  0  0  0  0  0  0  0  0999 V2000
    1.6570   36.9420   46.7830 C   0  0  0  0  0  0  0  0  0  0  0  0
    2.7980   37.9420   46.7640 C   0  0  0  0  0  0  0  0  0  0  0  0
    2.7830   38.7340   47.9620 O   0  0  0  0  0  0  0  0  0  0  0  0
    3.3010   39.9880   47.8530 C   0  0  0  0  0  0  0  0  0  0  0  0
    3.0490   40.7560   46.9380 O   0  0  0  0  0  0  0  0  0  0  0  0
    4.1110   40.2000   48.9330 N   0  0  0  0  0  0  0  0  0  0  0  0
    4.8560   41.3450   49.2560 C   0  0  0  0  0  0  0  0  0  0  0  0
    5.8970   41.8410   48.4750 C   0  0  0  0  0  0  0  0  0  0  0  0
    6.5920   42.9940   48.8700 C   0  0  0  0  0  0  0  0  0  0  0  0
    6.2830   43.6610   50.0630 C   0  0  0  0  0  0  0  0  0  0  0  0
    6.9680   44.8540   50.3780 N   0  0  0  0  0  0  0  0  0  0  0  0
    6.7610   45.7370   51.4740 C   0  0  0  0  0  0  0  0  0  0  0  0
    5.5070   46.0660   51.8290 N   0  0  0  0  0  0  0  0  0  0  0  0
    5.3300   46.8860   52.8790 C   0  0  0  0  0  0  0  0  0  0  0  0
    3.9210   47.2530   53.2760 C   0  0  0  0  0  0  0  0  0  0  0  0
    2.8380   46.1990   53.3140 C   0  0  0  0  0  0  0  0  0  0  0  0
    2.8190   47.2450   52.2400 C   0  0  0  0  0  0  0  0  0  0  0  0
    6.3460   47.3860   53.6020 N   0  0  0  0  0  0  0  0  0  0  0  0
    7.5920   47.0690   53.2450 C   0  0  0  0  0  0  0  0  0  0  0  0
    8.6460   47.5940   53.9840 C   0  0  0  0  0  0  0  0  0  0  0  0
    9.9800   47.3210   53.6690 C   0  0  0  0  0  0  0  0  0  0  0  0
   10.2780   46.5080   52.5850 C   0  0  0  0  0  0  0  0  0  0  0  0
    9.2370   45.9690   51.8310 C   0  0  0  0  0  0  0  0  0  0  0  0
    7.8820   46.2370   52.1600 C   0  0  0  0  0  0  0  0  0  0  0  0
    5.2110   43.1760   50.8160 C   0  0  0  0  0  0  0  0  0  0  0  0
    4.5150   42.0240   50.4280 C   0  0  0  0  0  0  0  0  0  0  0  0
    1.3910   36.7089   47.8246 H   0  0  0  0  0  0  0  0  0  0  0  0
    0.7844   37.3715   46.2691 H   0  0  0  0  0  0  0  0  0  0  0  0
    1.9684   36.0206   46.2691 H   0  0  0  0  0  0  0  0  0  0  0  0
    3.7538   37.4016   46.6976 H   0  0  0  0  0  0  0  0  0  0  0  0
    2.6802   38.6047   45.8940 H   0  0  0  0  0  0  0  0  0  0  0  0
    4.1540   39.4130   49.5630 H   0  0  0  0  0  0  0  0  0  0  0  0
    6.1757   41.3262   47.5437 H   0  0  0  0  0  0  0  0  0  0  0  0
    7.3971   43.3829   48.2292 H   0  0  0  0  0  0  0  0  0  0  0  0
    7.9660   44.7570   50.2240 H   0  0  0  0  0  0  0  0  0  0  0  0
    4.3180   47.9872   53.9925 H   0  0  0  0  0  0  0  0  0  0  0  0
    3.0778   45.1558   53.0604 H   0  0  0  0  0  0  0  0  0  0  0  0
    2.1199   45.8511   54.0712 H   0  0  0  0  0  0  0  0  0  0  0  0
    3.0451   46.9683   51.1997 H   0  0  0  0  0  0  0  0  0  0  0  0
    2.0816   47.9801   51.8852 H   0  0  0  0  0  0  0  0  0  0  0  0
    8.4232   48.2441   54.8429 H   0  0  0  0  0  0  0  0  0  0  0  0
   10.7901   47.7488   54.2779 H   0  0  0  0  0  0  0  0  0  0  0  0
   11.3242   46.2912   52.3235 H   0  0  0  0  0  0  0  0  0  0  0  0
    9.4685   45.3267   50.9686 H   0  0  0  0  0  0  0  0  0  0  0  0
    4.9081   43.7082   51.7298 H   0  0  0  0  0  0  0  0  0  0  0  0
    3.6908   41.6500   51.0532 H   0  0  0  0  0  0  0  0  0  0  0  0
  1  2  1  0
  2  3  1  0
  3  4  1  0
  4  5  2  0
  4  6  1  0
  6  7  1  0
  7  8  2  0
  8  9  1  0
  9 10  2  0
 10 11  1  0
 11 12  1  0
 12 13  2  0
 13 14  1  0
 14 15  1  0
 15 16  1  0
 16 17  1  0
 14 18  2  0
 18 19  1  0
 19 20  2  0
 20 21  1  0
 21 22  2  0
 22 23  1  0
 23 24  2  0
 10 25  1  0
 25 26  2  0
 26  7  1  0
 24 12  1  0
 17 15  1  0
 24 19  1  0
  1 27  1  0
  1 28  1  0
  1 29  1  0
  2 30  1  0
  2 31  1  0
  6 32  1  0
  8 33  1  0
  9 34  1  0
 11 35  1  0
 15 36  1  0
 16 37  1  0
 16 38  1  0
 17 39  1  0
 17 40  1  0
 20 41  1  0
 21 42  1  0
 22 43  1  0
 23 44  1  0
 25 45  1  0
 26 46  1  0
M  END
>  <meeko>  (68) 
{"is_sidechain": false}

>  <CID>  (68) 
Z3950664500

>  <pose_index>  (68) 
1

>  <docking_score>  (68) 
-9.497

>  <num_viable_poses>  (68) 
6

>  <rmsd_pairwise_std>  (68) 
0.38067556717766443

>  <rmsd_to_best_std>  (68) 
0.1988870175382513

>  <MWT>  (68) 
348.4059999999998

>  <TPSA>  (68) 
76.14

>  <logP>  (68) 
4.819200000000003

>  <HBD>  (68) 
2

>  <HBA>  (68) 
5

>  <SMILES>  (68) 
[H]c1c([H])c(N([H])c2nc(C3([H])C([H])([H])C3([H])[H])nc3c([H])c([H])c([H])c([H])c23)c([H])c([H])c1N([H])C(=O)OC([H])([H])C([H])([H])[H]

$$$$
Z4122330572_pose3
     RDKit          3D

 52 55  0  0  0  0  0  0  0  0999 V2000
    8.7133   47.8545   53.6265 C   0  0  0  0  0  0  0  0  0  0  0  0
    9.0972   46.8543   52.7666 C   0  0  0  0  0  0  0  0  0  0  0  0
    8.1916   45.8345   52.5818 C   0  0  0  0  0  0  0  0  0  0  0  0
    8.5539   44.7447   51.7584 N   0  0  0  0  0  0  0  0  0  0  0  0
    7.9086   44.7288   50.4419 C   0  0  0  0  0  0  0  0  0  0  0  0
    7.2093   43.3733   50.2006 C   0  0  0  0  0  0  0  0  0  0  0  0
    7.2637   42.9087   48.7576 C   0  0  0  0  0  0  0  0  0  0  0  0
    7.1677   44.0893   47.8575 N   0  0  0  0  0  4  0  0  0  0  0  0
    8.3111   45.0448   47.9730 C   0  0  0  0  0  0  0  0  0  0  0  0
    8.9532   44.9896   49.3553 C   0  0  0  0  0  0  0  0  0  0  0  0
    7.0042   45.8314   53.2035 N   0  0  0  0  0  0  0  0  0  0  0  0
    6.7012   46.8471   54.0280 C   0  0  0  0  0  0  0  0  0  0  0  0
    5.5041   46.8519   54.7375 N   0  0  0  0  0  0  0  0  0  0  0  0
    4.3479   46.0729   54.6366 C   0  0  0  0  0  0  0  0  0  0  0  0
    4.0708   45.2576   53.5315 C   0  0  0  0  0  0  0  0  0  0  0  0
    2.9375   44.4395   53.5004 C   0  0  0  0  0  0  0  0  0  0  0  0
    2.0619   44.4314   54.5799 C   0  0  0  0  0  0  0  0  0  0  0  0
    0.9991   43.5757   54.5249 O   0  0  0  0  0  0  0  0  0  0  0  0
   -0.2140   44.2156   54.0859 C   0  0  0  0  0  0  0  0  0  0  0  0
   -1.2433   44.0377   55.1802 C   0  0  0  0  0  0  0  0  0  0  0  0
   -1.7149   42.6166   54.9493 C   0  0  0  0  0  0  0  0  0  0  0  0
   -1.6021   42.3553   53.5423 O   0  0  0  0  0  0  0  0  0  0  0  0
   -0.8625   43.4376   52.9462 C   0  0  0  0  0  0  0  0  0  0  0  0
    2.3276   45.2075   55.7018 C   0  0  0  0  0  0  0  0  0  0  0  0
    3.4609   46.0274   55.7236 C   0  0  0  0  0  0  0  0  0  0  0  0
    7.5326   47.8671   54.2689 N   0  0  0  0  0  0  0  0  0  0  0  0
    9.4089   48.6891   53.7985 H   0  0  0  0  0  0  0  0  0  0  0  0
   10.0713   46.8677   52.2558 H   0  0  0  0  0  0  0  0  0  0  0  0
    9.5730   44.7175   51.7225 H   0  0  0  0  0  0  0  0  0  0  0  0
    7.1463   45.5211   50.4062 H   0  0  0  0  0  0  0  0  0  0  0  0
    7.6975   42.6137   50.8289 H   0  0  0  0  0  0  0  0  0  0  0  0
    6.1478   43.5087   50.4555 H   0  0  0  0  0  0  0  0  0  0  0  0
    8.2134   42.3843   48.5758 H   0  0  0  0  0  0  0  0  0  0  0  0
    6.4258   42.2243   48.5587 H   0  0  0  0  0  0  0  0  0  0  0  0
    7.0910   43.7683   46.8806 H   0  0  0  0  0  0  0  0  0  0  0  0
    6.2766   44.5746   48.0432 H   0  0  0  0  0  0  0  0  0  0  0  0
    9.0682   44.7881   47.2174 H   0  0  0  0  0  0  0  0  0  0  0  0
    7.9255   46.0626   47.8137 H   0  0  0  0  0  0  0  0  0  0  0  0
    9.6982   44.1805   49.3726 H   0  0  0  0  0  0  0  0  0  0  0  0
    9.4295   45.9605   49.5566 H   0  0  0  0  0  0  0  0  0  0  0  0
    5.4911   47.6245   55.3891 H   0  0  0  0  0  0  0  0  0  0  0  0
    4.7577   45.2611   52.6723 H   0  0  0  0  0  0  0  0  0  0  0  0
    2.7393   43.8044   52.6244 H   0  0  0  0  0  0  0  0  0  0  0  0
    0.0403   45.2509   53.8147 H   0  0  0  0  0  0  0  0  0  0  0  0
   -0.7900   44.1505   56.1761 H   0  0  0  0  0  0  0  0  0  0  0  0
   -2.0530   44.7818   55.1496 H   0  0  0  0  0  0  0  0  0  0  0  0
   -1.0851   41.9140   55.5148 H   0  0  0  0  0  0  0  0  0  0  0  0
   -2.7538   42.4901   55.2878 H   0  0  0  0  0  0  0  0  0  0  0  0
   -0.0894   43.0406   52.2720 H   0  0  0  0  0  0  0  0  0  0  0  0
   -1.5250   44.0869   52.3550 H   0  0  0  0  0  0  0  0  0  0  0  0
    1.6504   45.1773   56.5680 H   0  0  0  0  0  0  0  0  0  0  0  0
    3.6607   46.6483   56.6093 H   0  0  0  0  0  0  0  0  0  0  0  0
  1  2  2  0
  2  3  1  0
  3  4  1  0
  4  5  1  0
  5  6  1  0
  6  7  1  0
  7  8  1  0
  8  9  1  0
  9 10  1  0
  3 11  2  0
 11 12  1  0
 12 13  1  0
 13 14  1  0
 14 15  2  0
 15 16  1  0
 16 17  2  0
 17 18  1  0
 18 19  1  0
 19 20  1  0
 20 21  1  0
 21 22  1  0
 22 23  1  0
 17 24  1  0
 24 25  2  0
 12 26  2  0
 26  1  1  0
 10  5  1  0
 25 14  1  0
 23 19  1  0
  1 27  1  0
  2 28  1  0
  4 29  1  0
  5 30  1  0
  6 31  1  0
  6 32  1  0
  7 33  1  0
  7 34  1  0
  8 35  1  0
  8 36  1  0
  9 37  1  0
  9 38  1  0
 10 39  1  0
 10 40  1  0
 13 41  1  0
 15 42  1  0
 16 43  1  0
 19 44  1  0
 20 45  1  0
 20 46  1  0
 21 47  1  0
 21 48  1  0
 23 49  1  0
 23 50  1  0
 24 51  1  0
 25 52  1  0
M  CHG  1   8   1
M  END
>  <meeko>  (69) 
{"is_sidechain": false}

>  <CID>  (69) 
Z4122330572

>  <pose_index>  (69) 
3

>  <docking_score>  (69) 
-8.027

>  <num_viable_poses>  (69) 
5

>  <rmsd_pairwise_std>  (69) 
0.2531242309467645

>  <rmsd_to_best_std>  (69) 
0.32918320707263476

>  <MWT>  (69) 
356.4499999999996

>  <TPSA>  (69) 
84.91000000000001

>  <logP>  (69) 
1.5255999999999985

>  <HBD>  (69) 
3

>  <HBA>  (69) 
6

>  <SMILES>  (69) 
[H]c1nc(N([H])c2c([H])c([H])c(OC3([H])C([H])([H])OC([H])([H])C3([H])[H])c([H])c2[H])nc(N([H])C2([H])C([H])([H])C([H])([H])[N+]([H])([H])C([H])([H])C2([H])[H])c1[H]

$$$$
Z442313918_pose1
     RDKit          3D

 38 40  0  0  0  0  0  0  0  0999 V2000
    9.4780   47.6360   53.7580 C   0  0  0  0  0  0  0  0  0  0  0  0
    8.1590   47.9640   53.3380 O   0  0  0  0  0  0  0  0  0  0  0  0
    7.3210   46.9190   53.0660 C   0  0  0  0  0  0  0  0  0  0  0  0
    6.9240   46.8220   51.7300 C   0  0  0  0  0  0  0  0  0  0  0  0
    6.0660   45.8020   51.3090 C   0  0  0  0  0  0  0  0  0  0  0  0
    5.5990   44.8530   52.2260 C   0  0  0  0  0  0  0  0  0  0  0  0
    4.6800   43.7650   51.8150 C   0  0  0  0  0  0  0  0  0  0  0  0
    3.5020   43.7110   52.5260 N   0  0  0  0  0  0  0  0  0  0  0  0
    2.6250   42.7990   52.2570 C   0  0  0  0  0  0  0  0  0  0  0  0
    1.4190   42.6350   52.8870 N   0  0  0  0  0  0  0  0  0  0  0  0
    0.8120   43.4130   53.8940 C   0  0  0  0  0  0  0  0  0  0  0  0
    1.5030   44.2710   54.7550 C   0  0  0  0  0  0  0  0  0  0  0  0
    0.8340   45.0030   55.7440 C   0  0  0  0  0  0  0  0  0  0  0  0
   -0.5440   44.8850   55.8920 C   0  0  0  0  0  0  0  0  0  0  0  0
   -1.2540   44.0350   55.0520 C   0  0  0  0  0  0  0  0  0  0  0  0
   -0.5810   43.3060   54.0660 C   0  0  0  0  0  0  0  0  0  0  0  0
    2.8770   41.8820   51.2700 N   0  0  0  0  0  0  0  0  0  0  0  0
    4.0250   41.8590   50.5310 C   0  0  0  0  0  0  0  0  0  0  0  0
    4.1940   41.0070   49.6630 O   0  0  0  0  0  0  0  0  0  0  0  0
    5.0190   42.8990   50.8420 C   0  0  0  0  0  0  0  0  0  0  0  0
    6.2450   42.9130   50.1290 C   0  0  0  0  0  0  0  0  0  0  0  0
    7.2380   42.9210   49.5270 N   0  0  0  0  0  0  0  0  0  0  0  0
    5.9850   44.9620   53.5690 C   0  0  0  0  0  0  0  0  0  0  0  0
    6.8440   45.9860   53.9850 C   0  0  0  0  0  0  0  0  0  0  0  0
    9.5208   47.6254   54.8571 H   0  0  0  0  0  0  0  0  0  0  0  0
    9.7498   46.6429   53.3708 H   0  0  0  0  0  0  0  0  0  0  0  0
   10.1833   48.3861   53.3708 H   0  0  0  0  0  0  0  0  0  0  0  0
    7.2915   47.5580   50.9998 H   0  0  0  0  0  0  0  0  0  0  0  0
    5.7571   45.7449   50.2548 H   0  0  0  0  0  0  0  0  0  0  0  0
    0.8470   41.8580   52.5930 H   0  0  0  0  0  0  0  0  0  0  0  0
    2.5935   44.3731   54.6536 H   0  0  0  0  0  0  0  0  0  0  0  0
    1.4006   45.6739   56.4064 H   0  0  0  0  0  0  0  0  0  0  0  0
   -1.0686   45.4607   56.6688 H   0  0  0  0  0  0  0  0  0  0  0  0
   -2.3439   43.9358   55.1625 H   0  0  0  0  0  0  0  0  0  0  0  0
   -1.1534   42.6337   53.4100 H   0  0  0  0  0  0  0  0  0  0  0  0
    2.2080   41.1650   51.0430 H   0  0  0  0  0  0  0  0  0  0  0  0
    5.6089   44.2351   54.3040 H   0  0  0  0  0  0  0  0  0  0  0  0
    7.1437   46.0546   55.0412 H   0  0  0  0  0  0  0  0  0  0  0  0
  1  2  1  0
  2  3  1  0
  3  4  2  0
  4  5  1  0
  5  6  2  0
  6  7  1  0
  7  8  1  0
  8  9  2  0
  9 10  1  0
 10 11  1  0
 11 12  2  0
 12 13  1  0
 13 14  2  0
 14 15  1  0
 15 16  2  0
  9 17  1  0
 17 18  1  0
 18 19  2  0
 18 20  1  0
 20 21  1  0
 21 22  3  0
  6 23  1  0
 23 24  2  0
 24  3  1  0
 20  7  2  0
 16 11  1  0
  1 25  1  0
  1 26  1  0
  1 27  1  0
  4 28  1  0
  5 29  1  0
 10 30  1  0
 12 31  1  0
 13 32  1  0
 14 33  1  0
 15 34  1  0
 16 35  1  0
 17 36  1  0
 23 37  1  0
 24 38  1  0
M  END
>  <meeko>  (70) 
{"is_sidechain": false}

>  <CID>  (70) 
Z442313918

>  <pose_index>  (70) 
1

>  <docking_score>  (70) 
-8.993

>  <num_viable_poses>  (70) 
10

>  <rmsd_pairwise_std>  (70) 
0.25412726234179045

>  <rmsd_to_best_std>  (70) 
0.22950514923475548

>  <MWT>  (70) 
318.33599999999973

>  <TPSA>  (70) 
90.79999999999998

>  <logP>  (70) 
3.0607800000000003

>  <HBD>  (70) 
2

>  <HBA>  (70) 
5

>  <SMILES>  (70) 
[H]c1c([H])c([H])c(N([H])c2nc(-c3c([H])c([H])c(OC([H])([H])[H])c([H])c3[H])c(C#N)c(=O)n2[H])c([H])c1[H]

$$$$
Z4521998795_pose2
     RDKit          3D

 41 44  0  0  0  0  0  0  0  0999 V2000
    5.4346   46.2439   55.5949 C   0  0  0  0  0  0  0  0  0  0  0  0
    5.3168   47.3866   54.6441 C   0  0  0  0  0  0  0  0  0  0  0  0
    5.0305   47.1833   53.1688 C   0  0  0  0  0  0  0  0  0  0  0  0
    4.6640   45.8254   52.6547 C   0  0  0  0  0  0  0  0  0  0  0  0
    4.0424   45.0972   53.4184 O   0  0  0  0  0  0  0  0  0  0  0  0
    5.0605   45.4940   51.3829 N   0  0  0  0  0  0  0  0  0  0  0  0
    4.8394   44.3233   50.6133 C   0  0  0  0  0  0  0  0  0  0  0  0
    3.4794   43.9634   50.4954 C   0  0  0  0  0  0  0  0  0  0  0  0
    3.0755   42.8362   49.7789 C   0  0  0  0  0  0  0  0  0  0  0  0
    4.0276   42.0349   49.1674 C   0  0  0  0  0  0  0  0  0  0  0  0
    5.3818   42.3691   49.2786 C   0  0  0  0  0  0  0  0  0  0  0  0
    6.4176   41.5006   48.6411 C   0  0  0  0  0  0  0  0  0  0  0  0
    6.0436   40.4891   48.0546 O   0  0  0  0  0  0  0  0  0  0  0  0
    7.7458   41.8551   48.7171 N   0  0  0  0  0  0  0  0  0  0  0  0
    8.0403   42.9021   49.4061 C   0  0  0  0  0  0  0  0  0  0  0  0
    7.1883   43.7066   50.0892 N   0  0  0  0  0  0  0  0  0  0  0  0
    5.8075   43.5110   49.9879 C   0  0  0  0  0  0  0  0  0  0  0  0
    6.3601   47.7659   53.6121 C   0  0  0  0  0  0  0  0  0  0  0  0
    7.6896   47.0859   53.4202 C   0  0  0  0  0  0  0  0  0  0  0  0
    8.0907   46.6506   52.1431 C   0  0  0  0  0  0  0  0  0  0  0  0
    9.3185   46.0176   51.9379 C   0  0  0  0  0  0  0  0  0  0  0  0
   10.1891   45.8259   53.0059 C   0  0  0  0  0  0  0  0  0  0  0  0
    9.8343   46.2811   54.2724 C   0  0  0  0  0  0  0  0  0  0  0  0
    8.6034   46.9121   54.4715 C   0  0  0  0  0  0  0  0  0  0  0  0
    4.4297   45.9046   55.8866 H   0  0  0  0  0  0  0  0  0  0  0  0
    5.9742   45.4172   55.1096 H   0  0  0  0  0  0  0  0  0  0  0  0
    5.9867   46.5669   56.4898 H   0  0  0  0  0  0  0  0  0  0  0  0
    4.8411   47.9211   55.4796 H   0  0  0  0  0  0  0  0  0  0  0  0
    4.3332   47.5139   52.3850 H   0  0  0  0  0  0  0  0  0  0  0  0
    5.6569   46.1732   50.9343 H   0  0  0  0  0  0  0  0  0  0  0  0
    2.7168   44.5890   50.9821 H   0  0  0  0  0  0  0  0  0  0  0  0
    2.0076   42.5847   49.6996 H   0  0  0  0  0  0  0  0  0  0  0  0
    3.7210   41.1440   48.5996 H   0  0  0  0  0  0  0  0  0  0  0  0
    9.1051   43.1755   49.4453 H   0  0  0  0  0  0  0  0  0  0  0  0
    7.5115   44.6042   50.4529 H   0  0  0  0  0  0  0  0  0  0  0  0
    6.9329   48.6789   53.3924 H   0  0  0  0  0  0  0  0  0  0  0  0
    7.4207   46.8129   51.2859 H   0  0  0  0  0  0  0  0  0  0  0  0
    9.5971   45.6706   50.9319 H   0  0  0  0  0  0  0  0  0  0  0  0
   11.1522   45.3177   52.8503 H   0  0  0  0  0  0  0  0  0  0  0  0
   10.5241   46.1439   55.1182 H   0  0  0  0  0  0  0  0  0  0  0  0
    8.3446   47.2810   55.4750 H   0  0  0  0  0  0  0  0  0  0  0  0
  1  2  1  0
  2  3  1  0
  3  4  1  0
  4  5  2  0
  4  6  1  0
  6  7  1  0
  7  8  2  0
  8  9  1  0
  9 10  2  0
 10 11  1  0
 11 12  1  0
 12 13  2  0
 12 14  1  0
 14 15  2  0
 15 16  1  0
 16 17  1  0
  3 18  1  0
 18 19  1  0
 19 20  2  0
 20 21  1  0
 21 22  2  0
 22 23  1  0
 23 24  2  0
 18  2  1  0
 24 19  1  0
 17  7  1  0
 17 11  2  0
  1 25  1  0
  1 26  1  0
  1 27  1  0
  2 28  1  0
  3 29  1  0
  6 30  1  0
  8 31  1  0
  9 32  1  0
 10 33  1  0
 15 34  1  0
 16 35  1  0
 18 36  1  0
 20 37  1  0
 21 38  1  0
 22 39  1  0
 23 40  1  0
 24 41  1  0
M  END
>  <meeko>  (71) 
{"is_sidechain": false}

>  <CID>  (71) 
Z4521998795

>  <pose_index>  (71) 
2

>  <docking_score>  (71) 
-9.538

>  <num_viable_poses>  (71) 
6

>  <rmsd_pairwise_std>  (71) 
0.34353220590391037

>  <rmsd_to_best_std>  (71) 
0.1514295144358938

>  <MWT>  (71) 
319.36399999999975

>  <TPSA>  (71) 
74.85

>  <logP>  (71) 
2.9113000000000007

>  <HBD>  (71) 
2

>  <HBA>  (71) 
3

>  <SMILES>  (71) 
[H]c1c([H])c([H])c(C2([H])C([H])(C(=O)N([H])c3c([H])c([H])c([H])c4c(=O)nc([H])n([H])c34)C2([H])C([H])([H])[H])c([H])c1[H]

$$$$
Z48852930_pose1
     RDKit          3D

 41 43  0  0  0  0  0  0  0  0999 V2000
    3.3210   46.4240   51.0340 C   0  0  0  0  0  0  0  0  0  0  0  0
    2.9480   46.0320   52.4200 C   0  0  0  0  0  0  0  0  0  0  0  0
    1.6090   46.1090   52.7690 N   0  0  0  0  0  0  0  0  0  0  0  0
    1.4140   45.6710   53.9900 C   0  0  0  0  0  0  0  0  0  0  0  0
    0.1710   45.6660   54.5290 N   0  0  0  0  0  0  0  0  0  0  0  0
   -0.2310   44.6960   55.5400 C   0  0  0  0  0  0  0  0  0  0  0  0
   -0.4740   45.3270   56.9180 C   0  0  0  0  0  0  0  0  0  0  0  0
   -1.1810   46.6740   56.8720 C   0  0  0  0  0  0  0  0  0  0  0  0
   -0.7400   47.2890   58.1780 C   0  0  0  0  0  0  0  0  0  0  0  0
    0.6970   46.8240   58.2750 C   0  0  0  0  0  0  0  0  0  0  0  0
    0.7850   45.5720   57.5800 O   0  0  0  0  0  0  0  0  0  0  0  0
    2.8420   45.1600   54.7990 S   0  0  0  0  0  0  0  0  0  0  0  0
    3.7800   45.5740   53.4270 C   0  0  0  0  0  0  0  0  0  0  0  0
    5.2200   45.3900   53.4640 C   0  0  0  0  0  0  0  0  0  0  0  0
    5.7330   44.3030   53.7060 O   0  0  0  0  0  0  0  0  0  0  0  0
    5.9220   46.5620   53.2300 N   0  0  0  0  0  0  0  0  0  0  0  0
    7.3190   46.7330   53.1390 C   0  0  0  0  0  0  0  0  0  0  0  0
    7.9900   47.1210   54.3070 C   0  0  0  0  0  0  0  0  0  0  0  0
    9.3730   47.3200   54.3040 C   0  0  0  0  0  0  0  0  0  0  0  0
   10.1000   47.1370   53.1310 C   0  0  0  0  0  0  0  0  0  0  0  0
    9.4420   46.7560   51.9640 C   0  0  0  0  0  0  0  0  0  0  0  0
    8.0560   46.5560   51.9680 C   0  0  0  0  0  0  0  0  0  0  0  0
    4.0789   47.2205   51.0696 H   0  0  0  0  0  0  0  0  0  0  0  0
    3.7306   45.5515   50.5039 H   0  0  0  0  0  0  0  0  0  0  0  0
    2.4293   46.7898   50.5039 H   0  0  0  0  0  0  0  0  0  0  0  0
   -0.5530   45.8810   53.8510 H   0  0  0  0  0  0  0  0  0  0  0  0
   -1.1606   44.2102   55.2087 H   0  0  0  0  0  0  0  0  0  0  0  0
    0.5937   43.9764   55.6499 H   0  0  0  0  0  0  0  0  0  0  0  0
   -1.1111   44.6024   57.4463 H   0  0  0  0  0  0  0  0  0  0  0  0
   -0.8476   47.2738   56.0123 H   0  0  0  0  0  0  0  0  0  0  0  0
   -2.2725   46.6043   56.7546 H   0  0  0  0  0  0  0  0  0  0  0  0
   -0.8036   48.3867   58.1446 H   0  0  0  0  0  0  0  0  0  0  0  0
   -1.3601   46.9961   59.0381 H   0  0  0  0  0  0  0  0  0  0  0  0
    1.3646   47.5626   57.8072 H   0  0  0  0  0  0  0  0  0  0  0  0
    1.0005   46.7096   59.3261 H   0  0  0  0  0  0  0  0  0  0  0  0
    5.3750   47.4120   53.1900 H   0  0  0  0  0  0  0  0  0  0  0  0
    7.4212   47.2705   55.2366 H   0  0  0  0  0  0  0  0  0  0  0  0
    9.8873   47.6213   55.2285 H   0  0  0  0  0  0  0  0  0  0  0  0
   11.1889   47.2926   53.1258 H   0  0  0  0  0  0  0  0  0  0  0  0
   10.0135   46.6116   51.0353 H   0  0  0  0  0  0  0  0  0  0  0  0
    7.5448   46.2572   51.0410 H   0  0  0  0  0  0  0  0  0  0  0  0
  1  2  1  0
  2  3  1  0
  3  4  2  0
  4  5  1  0
  5  6  1  0
  6  7  1  0
  7  8  1  0
  8  9  1  0
  9 10  1  0
 10 11  1  0
  4 12  1  0
 12 13  1  0
 13 14  1  0
 14 15  2  0
 14 16  1  0
 16 17  1  0
 17 18  2  0
 18 19  1  0
 19 20  2  0
 20 21  1  0
 21 22  2  0
 13  2  2  0
 22 17  1  0
 11  7  1  0
  1 23  1  0
  1 24  1  0
  1 25  1  0
  5 26  1  0
  6 27  1  0
  6 28  1  0
  7 29  1  0
  8 30  1  0
  8 31  1  0
  9 32  1  0
  9 33  1  0
 10 34  1  0
 10 35  1  0
 16 36  1  0
 18 37  1  0
 19 38  1  0
 20 39  1  0
 21 40  1  0
 22 41  1  0
M  END
>  <meeko>  (72) 
{"is_sidechain": false}

>  <CID>  (72) 
Z48852930

>  <pose_index>  (72) 
1

>  <docking_score>  (72) 
-7.891

>  <num_viable_poses>  (72) 
6

>  <rmsd_pairwise_std>  (72) 
0.42766810872512684

>  <rmsd_to_best_std>  (72) 
0.6760460631527688

>  <MWT>  (72) 
317.4139999999997

>  <TPSA>  (72) 
63.25000000000001

>  <logP>  (72) 
3.2947200000000016

>  <HBD>  (72) 
2

>  <HBA>  (72) 
5

>  <SMILES>  (72) 
[H]c1c([H])c([H])c(N([H])C(=O)c2sc(N([H])C([H])([H])C3([H])OC([H])([H])C([H])([H])C3([H])[H])nc2C([H])([H])[H])c([H])c1[H]

$$$$
Z48858335_pose1
     RDKit          3D

 43 45  0  0  0  0  0  0  0  0999 V2000
    5.1920   44.9210   55.2890 C   0  0  0  0  0  0  0  0  0  0  0  0
    5.2080   45.3370   53.8610 C   0  0  0  0  0  0  0  0  0  0  0  0
    6.4290   45.3510   53.2040 N   0  0  0  0  0  0  0  0  0  0  0  0
    6.2990   45.7370   51.9630 C   0  0  0  0  0  0  0  0  0  0  0  0
    7.2810   45.8600   51.0470 N   0  0  0  0  0  0  0  0  0  0  0  0
    8.4570   46.7120   51.1900 C   0  0  0  0  0  0  0  0  0  0  0  0
    8.1650   48.0230   51.9300 C   0  0  0  0  0  0  0  0  0  0  0  0
    8.4880   48.0040   53.4200 C   0  0  0  0  0  0  0  0  0  0  0  0
    9.8860   47.4610   53.6850 C   0  0  0  0  0  0  0  0  0  0  0  0
   10.0580   46.0560   53.1260 C   0  0  0  0  0  0  0  0  0  0  0  0
    9.7220   45.9690   51.6390 C   0  0  0  0  0  0  0  0  0  0  0  0
    4.6800   46.1060   51.5060 S   0  0  0  0  0  0  0  0  0  0  0  0
    4.1260   45.7210   53.0850 C   0  0  0  0  0  0  0  0  0  0  0  0
    2.7220   45.8120   53.4750 C   0  0  0  0  0  0  0  0  0  0  0  0
    1.9980   46.7060   53.0510 O   0  0  0  0  0  0  0  0  0  0  0  0
    2.3020   44.8180   54.3450 N   0  0  0  0  0  0  0  0  0  0  0  0
    1.0220   44.6220   54.9020 C   0  0  0  0  0  0  0  0  0  0  0  0
    0.7910   45.1720   56.1710 C   0  0  0  0  0  0  0  0  0  0  0  0
   -0.4480   45.0270   56.7980 C   0  0  0  0  0  0  0  0  0  0  0  0
   -1.4720   44.3290   56.1620 C   0  0  0  0  0  0  0  0  0  0  0  0
   -1.2530   43.7800   54.9020 C   0  0  0  0  0  0  0  0  0  0  0  0
   -0.0110   43.9250   54.2740 C   0  0  0  0  0  0  0  0  0  0  0  0
    5.2263   45.8134   55.9313 H   0  0  0  0  0  0  0  0  0  0  0  0
    4.2714   44.3555   55.4959 H   0  0  0  0  0  0  0  0  0  0  0  0
    6.0664   44.2865   55.4959 H   0  0  0  0  0  0  0  0  0  0  0  0
    7.0120   45.6840   50.0850 H   0  0  0  0  0  0  0  0  0  0  0  0
    8.7157   47.0331   50.1702 H   0  0  0  0  0  0  0  0  0  0  0  0
    8.7607   48.8201   51.4612 H   0  0  0  0  0  0  0  0  0  0  0  0
    7.0802   48.1870   51.8513 H   0  0  0  0  0  0  0  0  0  0  0  0
    8.4234   49.0297   53.8121 H   0  0  0  0  0  0  0  0  0  0  0  0
    7.7630   47.3451   53.9203 H   0  0  0  0  0  0  0  0  0  0  0  0
   10.6228   48.1262   53.2110 H   0  0  0  0  0  0  0  0  0  0  0  0
   10.0373   47.4184   54.7737 H   0  0  0  0  0  0  0  0  0  0  0  0
   11.1035   45.7456   53.2694 H   0  0  0  0  0  0  0  0  0  0  0  0
    9.3608   45.3965   53.6636 H   0  0  0  0  0  0  0  0  0  0  0  0
   10.5724   46.3827   51.0772 H   0  0  0  0  0  0  0  0  0  0  0  0
    9.5264   44.9047   51.4413 H   0  0  0  0  0  0  0  0  0  0  0  0
    3.0120   44.1490   54.6150 H   0  0  0  0  0  0  0  0  0  0  0  0
    1.5956   45.7243   56.6786 H   0  0  0  0  0  0  0  0  0  0  0  0
   -0.6154   45.4637   57.7936 H   0  0  0  0  0  0  0  0  0  0  0  0
   -2.4492   44.2122   56.6533 H   0  0  0  0  0  0  0  0  0  0  0  0
   -2.0604   43.2293   54.3972 H   0  0  0  0  0  0  0  0  0  0  0  0
    0.1522   43.4865   53.2784 H   0  0  0  0  0  0  0  0  0  0  0  0
  1  2  1  0
  2  3  1  0
  3  4  2  0
  4  5  1  0
  5  6  1  0
  6  7  1  0
  7  8  1  0
  8  9  1  0
  9 10  1  0
 10 11  1  0
  4 12  1  0
 12 13  1  0
 13 14  1  0
 14 15  2  0
 14 16  1  0
 16 17  1  0
 17 18  2  0
 18 19  1  0
 19 20  2  0
 20 21  1  0
 21 22  2  0
 13  2  2  0
 22 17  1  0
 11  6  1  0
  1 23  1  0
  1 24  1  0
  1 25  1  0
  5 26  1  0
  6 27  1  0
  7 28  1  0
  7 29  1  0
  8 30  1  0
  8 31  1  0
  9 32  1  0
  9 33  1  0
 10 34  1  0
 10 35  1  0
 11 36  1  0
 11 37  1  0
 16 38  1  0
 18 39  1  0
 19 40  1  0
 20 41  1  0
 21 42  1  0
 22 43  1  0
M  END
>  <meeko>  (73) 
{"is_sidechain": false}

>  <CID>  (73) 
Z48858335

>  <pose_index>  (73) 
1

>  <docking_score>  (73) 
-8.673

>  <num_viable_poses>  (73) 
6

>  <rmsd_pairwise_std>  (73) 
0.5268181411151851

>  <rmsd_to_best_std>  (73) 
0.5389883993654129

>  <MWT>  (73) 
315.44199999999967

>  <TPSA>  (73) 
54.02

>  <logP>  (73) 
4.448420000000003

>  <HBD>  (73) 
2

>  <HBA>  (73) 
4

>  <SMILES>  (73) 
[H]c1c([H])c([H])c(N([H])C(=O)c2sc(N([H])C3([H])C([H])([H])C([H])([H])C([H])([H])C([H])([H])C3([H])[H])nc2C([H])([H])[H])c([H])c1[H]

$$$$
Z48861625_pose1
     RDKit          3D

 44 46  0  0  0  0  0  0  0  0999 V2000
   11.2250   47.5000   56.4700 C   0  0  0  0  0  0  0  0  0  0  0  0
   10.1200   47.7500   55.4590 C   0  0  0  0  0  0  0  0  0  0  0  0
   10.4240   47.1290   54.2110 O   0  0  0  0  0  0  0  0  0  0  0  0
    9.4060   46.8640   53.3410 C   0  0  0  0  0  0  0  0  0  0  0  0
    8.1490   46.7540   53.9350 C   0  0  0  0  0  0  0  0  0  0  0  0
    7.0150   46.4870   53.1620 C   0  0  0  0  0  0  0  0  0  0  0  0
    7.1060   46.3260   51.7740 C   0  0  0  0  0  0  0  0  0  0  0  0
    5.9190   46.0910   51.0540 N   0  0  0  0  0  0  0  0  0  0  0  0
    4.7240   45.6230   51.4800 C   0  0  0  0  0  0  0  0  0  0  0  0
    4.4820   44.3340   51.5400 N   0  0  0  0  0  0  0  0  0  0  0  0
    3.2170   44.0800   52.0510 C   0  0  0  0  0  0  0  0  0  0  0  0
    2.7760   42.6620   52.1540 C   0  0  0  0  0  0  0  0  0  0  0  0
    2.5010   45.2080   52.4220 C   0  0  0  0  0  0  0  0  0  0  0  0
    1.1590   45.2810   52.9910 C   0  0  0  0  0  0  0  0  0  0  0  0
    0.2160   45.7260   52.3450 O   0  0  0  0  0  0  0  0  0  0  0  0
    1.0580   44.8090   54.2900 N   0  0  0  0  0  0  0  0  0  0  0  0
   -0.0830   44.7460   55.1150 C   0  0  0  0  0  0  0  0  0  0  0  0
   -1.1440   43.8600   54.9240 C   0  0  0  0  0  0  0  0  0  0  0  0
   -2.2400   43.8680   55.7950 C   0  0  0  0  0  0  0  0  0  0  0  0
   -2.2850   44.7620   56.8610 C   0  0  0  0  0  0  0  0  0  0  0  0
   -1.2320   45.6510   57.0610 C   0  0  0  0  0  0  0  0  0  0  0  0
   -0.1380   45.6430   56.1920 C   0  0  0  0  0  0  0  0  0  0  0  0
    3.4550   46.6010   52.1150 S   0  0  0  0  0  0  0  0  0  0  0  0
    8.3700   46.4480   51.1870 C   0  0  0  0  0  0  0  0  0  0  0  0
    9.5110   46.7120   51.9610 C   0  0  0  0  0  0  0  0  0  0  0  0
   10.8183   47.5920   57.4879 H   0  0  0  0  0  0  0  0  0  0  0  0
   11.6304   46.4874   56.3272 H   0  0  0  0  0  0  0  0  0  0  0  0
   12.0268   48.2394   56.3272 H   0  0  0  0  0  0  0  0  0  0  0  0
    9.1768   47.3376   55.8466 H   0  0  0  0  0  0  0  0  0  0  0  0
   10.0273   48.8344   55.2995 H   0  0  0  0  0  0  0  0  0  0  0  0
    8.0487   46.8786   55.0233 H   0  0  0  0  0  0  0  0  0  0  0  0
    6.0342   46.4019   53.6528 H   0  0  0  0  0  0  0  0  0  0  0  0
    5.8580   46.6650   50.2190 H   0  0  0  0  0  0  0  0  0  0  0  0
    2.6887   42.3812   53.2140 H   0  0  0  0  0  0  0  0  0  0  0  0
    1.7991   42.5452   51.6621 H   0  0  0  0  0  0  0  0  0  0  0  0
    3.5143   42.0117   51.6621 H   0  0  0  0  0  0  0  0  0  0  0  0
    1.9180   44.4590   54.6940 H   0  0  0  0  0  0  0  0  0  0  0  0
   -1.1191   43.1507   54.0836 H   0  0  0  0  0  0  0  0  0  0  0  0
   -3.0701   43.1640   55.6361 H   0  0  0  0  0  0  0  0  0  0  0  0
   -3.1485   44.7662   57.5424 H   0  0  0  0  0  0  0  0  0  0  0  0
   -1.2615   46.3589   57.9024 H   0  0  0  0  0  0  0  0  0  0  0  0
    0.6901   46.3486   56.3544 H   0  0  0  0  0  0  0  0  0  0  0  0
    8.4718   46.3348   50.0976 H   0  0  0  0  0  0  0  0  0  0  0  0
   10.4937   46.7993   51.4744 H   0  0  0  0  0  0  0  0  0  0  0  0
  1  2  1  0
  2  3  1  0
  3  4  1  0
  4  5  2  0
  5  6  1  0
  6  7  2  0
  7  8  1  0
  8  9  1  0
  9 10  2  0
 10 11  1  0
 11 12  1  0
 11 13  2  0
 13 14  1  0
 14 15  2  0
 14 16  1  0
 16 17  1  0
 17 18  2  0
 18 19  1  0
 19 20  2  0
 20 21  1  0
 21 22  2  0
 13 23  1  0
  7 24  1  0
 24 25  2  0
 25  4  1  0
 23  9  1  0
 22 17  1  0
  1 26  1  0
  1 27  1  0
  1 28  1  0
  2 29  1  0
  2 30  1  0
  5 31  1  0
  6 32  1  0
  8 33  1  0
 12 34  1  0
 12 35  1  0
 12 36  1  0
 16 37  1  0
 18 38  1  0
 19 39  1  0
 20 40  1  0
 21 41  1  0
 22 42  1  0
 24 43  1  0
 25 44  1  0
M  END
>  <meeko>  (74) 
{"is_sidechain": false}

>  <CID>  (74) 
Z48861625

>  <pose_index>  (74) 
1

>  <docking_score>  (74) 
-8.011

>  <num_viable_poses>  (74) 
6

>  <rmsd_pairwise_std>  (74) 
0.3375470640265359

>  <rmsd_to_best_std>  (74) 
0.26639546513825235

>  <MWT>  (74) 
353.44699999999966

>  <TPSA>  (74) 
63.25

>  <logP>  (74) 
4.8461200000000035

>  <HBD>  (74) 
2

>  <HBA>  (74) 
5

>  <SMILES>  (74) 
[H]c1c([H])c([H])c(N([H])C(=O)c2sc(N([H])c3c([H])c([H])c(OC([H])([H])C([H])([H])[H])c([H])c3[H])nc2C([H])([H])[H])c([H])c1[H]

$$$$
Z56840013_pose1
     RDKit          3D

 42 45  0  0  0  0  0  0  0  0999 V2000
    6.4040   41.6970   49.3380 N   0  0  0  0  0  0  0  0  0  0  0  0
    6.8810   42.9230   49.5980 C   0  0  0  0  0  0  0  0  0  0  0  0
    8.0300   43.3720   49.1010 N   0  0  0  0  0  0  0  0  0  0  0  0
    8.1120   44.6200   49.5840 N   0  0  0  0  0  0  0  0  0  0  0  0
    7.0720   44.9840   50.4040 C   0  0  0  0  0  0  0  0  0  0  0  0
    7.1070   46.1370   51.1180 N   0  0  0  0  0  0  0  0  0  0  0  0
    7.9860   46.4650   52.1710 C   0  0  0  0  0  0  0  0  0  0  0  0
    9.3690   46.4430   51.9390 C   0  0  0  0  0  0  0  0  0  0  0  0
   10.2720   46.7950   52.9450 C   0  0  0  0  0  0  0  0  0  0  0  0
    9.8040   47.1770   54.1990 C   0  0  0  0  0  0  0  0  0  0  0  0
    8.4340   47.2040   54.4480 C   0  0  0  0  0  0  0  0  0  0  0  0
    7.5330   46.8520   53.4390 C   0  0  0  0  0  0  0  0  0  0  0  0
    6.2260   43.8930   50.4040 C   0  0  0  0  0  0  0  0  0  0  0  0
    4.8570   43.6900   51.1300 C   0  0  0  0  0  0  0  0  0  0  0  0
    4.4420   42.4900   51.4930 N   0  0  0  0  0  0  0  0  0  0  0  0
    3.2770   42.6270   52.1950 N   0  0  0  0  0  0  0  0  0  0  0  0
    2.9510   43.9020   52.2060 C   0  0  0  0  0  0  0  0  0  0  0  0
    3.8920   44.6050   51.4840 N   0  0  0  0  0  0  0  0  0  0  0  0
    3.7990   45.9790   51.0370 C   0  0  0  0  0  0  0  0  0  0  0  0
    3.1300   46.9460   52.0120 C   0  0  0  0  0  0  0  0  0  0  0  0
    3.1710   46.4760   53.4650 C   0  0  0  0  0  0  0  0  0  0  0  0
    2.0200   45.5500   53.8830 C   0  0  0  0  0  0  0  0  0  0  0  0
    1.7330   44.4540   52.8640 C   0  0  0  0  0  0  0  0  0  0  0  0
    7.0740   40.9790   49.0960 H   0  0  0  0  0  0  0  0  0  0  0  0
    5.6080   41.3610   49.8800 H   0  0  0  0  0  0  0  0  0  0  0  0
    8.9420   45.1630   49.3760 H   0  0  0  0  0  0  0  0  0  0  0  0
    6.3110   46.7660   51.0460 H   0  0  0  0  0  0  0  0  0  0  0  0
    9.7481   46.1442   50.9506 H   0  0  0  0  0  0  0  0  0  0  0  0
   11.3536   46.7703   52.7461 H   0  0  0  0  0  0  0  0  0  0  0  0
   10.5142   47.4568   54.9911 H   0  0  0  0  0  0  0  0  0  0  0  0
    8.0609   47.5024   55.4389 H   0  0  0  0  0  0  0  0  0  0  0  0
    6.4525   46.8792   53.6435 H   0  0  0  0  0  0  0  0  0  0  0  0
    4.8194   46.3427   50.8462 H   0  0  0  0  0  0  0  0  0  0  0  0
    3.1586   45.9620   50.1428 H   0  0  0  0  0  0  0  0  0  0  0  0
    3.6431   47.9168   51.9460 H   0  0  0  0  0  0  0  0  0  0  0  0
    2.0703   47.0122   51.7243 H   0  0  0  0  0  0  0  0  0  0  0  0
    4.1166   45.9364   53.6220 H   0  0  0  0  0  0  0  0  0  0  0  0
    3.0753   47.3813   54.0825 H   0  0  0  0  0  0  0  0  0  0  0  0
    2.2817   45.0772   54.8411 H   0  0  0  0  0  0  0  0  0  0  0  0
    1.1141   46.1688   53.9623 H   0  0  0  0  0  0  0  0  0  0  0  0
    1.2149   43.6311   53.3782 H   0  0  0  0  0  0  0  0  0  0  0  0
    1.1225   44.9099   52.0707 H   0  0  0  0  0  0  0  0  0  0  0  0
  1  2  1  0
  2  3  2  0
  3  4  1  0
  4  5  1  0
  5  6  1  0
  6  7  1  0
  7  8  2  0
  8  9  1  0
  9 10  2  0
 10 11  1  0
 11 12  2  0
  5 13  2  0
 13 14  1  0
 14 15  2  0
 15 16  1  0
 16 17  2  0
 17 18  1  0
 18 19  1  0
 19 20  1  0
 20 21  1  0
 21 22  1  0
 22 23  1  0
 13  2  1  0
 18 14  1  0
 12  7  1  0
 23 17  1  0
  1 24  1  0
  1 25  1  0
  4 26  1  0
  6 27  1  0
  8 28  1  0
  9 29  1  0
 10 30  1  0
 11 31  1  0
 12 32  1  0
 19 33  1  0
 19 34  1  0
 20 35  1  0
 20 36  1  0
 21 37  1  0
 21 38  1  0
 22 39  1  0
 22 40  1  0
 23 41  1  0
 23 42  1  0
M  END
>  <meeko>  (75) 
{"is_sidechain": false}

>  <CID>  (75) 
Z56840013

>  <pose_index>  (75) 
1

>  <docking_score>  (75) 
-7.749

>  <num_viable_poses>  (75) 
5

>  <rmsd_pairwise_std>  (75) 
0.42093024467395646

>  <rmsd_to_best_std>  (75) 
0.22168565444494825

>  <MWT>  (75) 
309.37699999999967

>  <TPSA>  (75) 
97.44

>  <logP>  (75) 
2.7204000000000006

>  <HBD>  (75) 
3

>  <HBA>  (75) 
6

>  <SMILES>  (75) 
[H]c1c([H])c([H])c(N([H])c2c(-c3nnc4n3C([H])([H])C([H])([H])C([H])([H])C([H])([H])C4([H])[H])c(N([H])[H])nn2[H])c([H])c1[H]

$$$$
Z56854611_pose1
     RDKit          3D

 44 47  0  0  0  0  0  0  0  0999 V2000
   10.6800   47.7280   55.7170 C   0  0  0  0  0  0  0  0  0  0  0  0
    9.7760   47.3180   54.5930 C   0  0  0  0  0  0  0  0  0  0  0  0
    8.3960   47.5000   54.6870 C   0  0  0  0  0  0  0  0  0  0  0  0
    7.5610   47.1440   53.6220 C   0  0  0  0  0  0  0  0  0  0  0  0
    8.0780   46.6150   52.4290 C   0  0  0  0  0  0  0  0  0  0  0  0
    7.1860   46.2490   51.4170 N   0  0  0  0  0  0  0  0  0  0  0  0
    6.2970   45.1930   51.2390 C   0  0  0  0  0  0  0  0  0  0  0  0
    5.1540   45.1030   51.9290 N   0  0  0  0  0  0  0  0  0  0  0  0
    4.3390   44.0600   51.6830 C   0  0  0  0  0  0  0  0  0  0  0  0
    3.0950   43.9940   52.3690 N   0  0  0  0  0  0  0  0  0  0  0  0
    2.0690   44.7260   51.5790 C   0  0  0  0  0  0  0  0  0  0  0  0
    0.9000   45.1450   52.4840 C   0  0  0  0  0  0  0  0  0  0  0  0
    1.2860   46.0500   53.5300 O   0  0  0  0  0  0  0  0  0  0  0  0
    2.6650   45.9090   53.9170 C   0  0  0  0  0  0  0  0  0  0  0  0
    3.1790   44.4690   53.7730 C   0  0  0  0  0  0  0  0  0  0  0  0
    4.6670   43.0650   50.7470 C   0  0  0  0  0  0  0  0  0  0  0  0
    3.8870   41.9140   50.4660 C   0  0  0  0  0  0  0  0  0  0  0  0
    4.2980   40.9850   49.5140 C   0  0  0  0  0  0  0  0  0  0  0  0
    5.4920   41.1910   48.8380 C   0  0  0  0  0  0  0  0  0  0  0  0
    6.2660   42.3190   49.1270 C   0  0  0  0  0  0  0  0  0  0  0  0
    5.8750   43.2580   50.0750 C   0  0  0  0  0  0  0  0  0  0  0  0
    6.6720   44.3060   50.3080 N   0  0  0  0  0  0  0  0  0  0  0  0
    9.4620   46.4430   52.3470 C   0  0  0  0  0  0  0  0  0  0  0  0
   10.3040   46.7970   53.4090 C   0  0  0  0  0  0  0  0  0  0  0  0
   10.1931   47.5072   56.6783 H   0  0  0  0  0  0  0  0  0  0  0  0
   11.6260   47.1708   55.6486 H   0  0  0  0  0  0  0  0  0  0  0  0
   10.8840   48.8067   55.6486 H   0  0  0  0  0  0  0  0  0  0  0  0
    7.9618   47.9258   55.6036 H   0  0  0  0  0  0  0  0  0  0  0  0
    6.4743   47.2819   53.7220 H   0  0  0  0  0  0  0  0  0  0  0  0
    7.2150   46.7940   50.5680 H   0  0  0  0  0  0  0  0  0  0  0  0
    2.5245   45.6236   51.1353 H   0  0  0  0  0  0  0  0  0  0  0  0
    1.6891   44.0656   50.7855 H   0  0  0  0  0  0  0  0  0  0  0  0
    0.1361   45.6353   51.8627 H   0  0  0  0  0  0  0  0  0  0  0  0
    0.5195   44.2329   52.9670 H   0  0  0  0  0  0  0  0  0  0  0  0
    3.2773   46.5660   53.2818 H   0  0  0  0  0  0  0  0  0  0  0  0
    2.7406   46.1830   54.9796 H   0  0  0  0  0  0  0  0  0  0  0  0
    4.2285   44.4307   54.1001 H   0  0  0  0  0  0  0  0  0  0  0  0
    2.5484   43.8160   54.3943 H   0  0  0  0  0  0  0  0  0  0  0  0
    2.9436   41.7531   51.0082 H   0  0  0  0  0  0  0  0  0  0  0  0
    3.6834   40.0981   49.3003 H   0  0  0  0  0  0  0  0  0  0  0  0
    5.8282   40.4702   48.0781 H   0  0  0  0  0  0  0  0  0  0  0  0
    7.2132   42.4681   48.5879 H   0  0  0  0  0  0  0  0  0  0  0  0
    9.8993   46.0211   51.4301 H   0  0  0  0  0  0  0  0  0  0  0  0
   11.3914   46.6635   53.3099 H   0  0  0  0  0  0  0  0  0  0  0  0
  1  2  1  0
  2  3  2  0
  3  4  1  0
  4  5  2  0
  5  6  1  0
  6  7  1  0
  7  8  2  0
  8  9  1  0
  9 10  1  0
 10 11  1  0
 11 12  1  0
 12 13  1  0
 13 14  1  0
 14 15  1  0
  9 16  2  0
 16 17  1  0
 17 18  2  0
 18 19  1  0
 19 20  2  0
 20 21  1  0
 21 22  2  0
  5 23  1  0
 23 24  2  0
 24  2  1  0
 22  7  1  0
 15 10  1  0
 21 16  1  0
  1 25  1  0
  1 26  1  0
  1 27  1  0
  3 28  1  0
  4 29  1  0
  6 30  1  0
 11 31  1  0
 11 32  1  0
 12 33  1  0
 12 34  1  0
 14 35  1  0
 14 36  1  0
 15 37  1  0
 15 38  1  0
 17 39  1  0
 18 40  1  0
 19 41  1  0
 20 42  1  0
 23 43  1  0
 24 44  1  0
M  END
>  <meeko>  (76) 
{"is_sidechain": false}

>  <CID>  (76) 
Z56854611

>  <pose_index>  (76) 
1

>  <docking_score>  (76) 
-9.877

>  <num_viable_poses>  (76) 
8

>  <rmsd_pairwise_std>  (76) 
0.4181984061918654

>  <rmsd_to_best_std>  (76) 
0.4330892474344422

>  <MWT>  (76) 
320.3959999999997

>  <TPSA>  (76) 
50.28

>  <logP>  (76) 
3.5184200000000025

>  <HBD>  (76) 
1

>  <HBA>  (76) 
5

>  <SMILES>  (76) 
[H]c1c([H])c(C([H])([H])[H])c([H])c([H])c1N([H])c1nc(N2C([H])([H])C([H])([H])OC([H])([H])C2([H])[H])c2c([H])c([H])c([H])c([H])c2n1

$$$$
Z56890527_pose2
     RDKit          3D

 40 43  0  0  0  0  0  0  0  0999 V2000
    6.8856   47.5711   50.1323 C   0  0  0  0  0  0  0  0  0  0  0  0
    6.5425   47.0228   51.4884 C   0  0  0  0  0  0  0  0  0  0  0  0
    5.2498   47.1603   51.8600 N   0  0  0  0  0  0  0  0  0  0  0  0
    4.8884   46.6881   53.0641 C   0  0  0  0  0  0  0  0  0  0  0  0
    3.5787   46.8023   53.4950 N   0  0  0  0  0  0  0  0  0  0  0  0
    2.7776   45.8747   54.0786 C   0  0  0  0  0  0  0  0  0  0  0  0
    1.5629   46.2079   54.4074 N   0  0  0  0  0  0  0  0  0  0  0  0
    0.7613   45.2593   54.9983 C   0  0  0  0  0  0  0  0  0  0  0  0
    1.1456   43.9991   55.2634 C   0  0  0  0  0  0  0  0  0  0  0  0
    2.5267   43.6239   54.8962 C   0  0  0  0  0  0  0  0  0  0  0  0
    2.9800   42.5039   55.1059 O   0  0  0  0  0  0  0  0  0  0  0  0
    3.2537   44.6153   54.3131 N   0  0  0  0  0  0  0  0  0  0  0  0
    0.2731   42.9530   55.8891 C   0  0  0  0  0  0  0  0  0  0  0  0
   -1.2031   43.3538   55.9220 C   0  0  0  0  0  0  0  0  0  0  0  0
   -1.3640   44.8137   56.3291 C   0  0  0  0  0  0  0  0  0  0  0  0
   -0.6261   45.7390   55.3590 C   0  0  0  0  0  0  0  0  0  0  0  0
    5.7389   46.0911   53.9099 N   0  0  0  0  0  0  0  0  0  0  0  0
    7.0174   45.9583   53.5361 C   0  0  0  0  0  0  0  0  0  0  0  0
    7.9058   45.3408   54.4074 C   0  0  0  0  0  0  0  0  0  0  0  0
    9.2550   45.1653   54.0877 C   0  0  0  0  0  0  0  0  0  0  0  0
    9.7389   45.6170   52.8678 C   0  0  0  0  0  0  0  0  0  0  0  0
    8.8682   46.2387   51.9752 C   0  0  0  0  0  0  0  0  0  0  0  0
    7.5014   46.4152   52.3043 C   0  0  0  0  0  0  0  0  0  0  0  0
    7.3358   46.7768   49.5189 H   0  0  0  0  0  0  0  0  0  0  0  0
    5.9712   47.9383   49.6432 H   0  0  0  0  0  0  0  0  0  0  0  0
    7.6008   48.3996   50.2419 H   0  0  0  0  0  0  0  0  0  0  0  0
    3.1918   47.7182   53.3393 H   0  0  0  0  0  0  0  0  0  0  0  0
    4.2073   44.4035   54.0439 H   0  0  0  0  0  0  0  0  0  0  0  0
    0.3717   42.0220   55.3116 H   0  0  0  0  0  0  0  0  0  0  0  0
    0.6047   42.8248   56.9300 H   0  0  0  0  0  0  0  0  0  0  0  0
   -1.6374   43.2094   54.9218 H   0  0  0  0  0  0  0  0  0  0  0  0
   -1.7205   42.7249   56.6614 H   0  0  0  0  0  0  0  0  0  0  0  0
   -2.4334   45.0714   56.3285 H   0  0  0  0  0  0  0  0  0  0  0  0
   -0.9357   44.9463   57.3335 H   0  0  0  0  0  0  0  0  0  0  0  0
   -1.2179   45.8166   54.4350 H   0  0  0  0  0  0  0  0  0  0  0  0
   -0.5095   46.7085   55.8654 H   0  0  0  0  0  0  0  0  0  0  0  0
    7.5363   44.9791   55.3783 H   0  0  0  0  0  0  0  0  0  0  0  0
    9.9311   44.6707   54.8006 H   0  0  0  0  0  0  0  0  0  0  0  0
   10.7997   45.4854   52.6082 H   0  0  0  0  0  0  0  0  0  0  0  0
    9.2456   46.5960   51.0057 H   0  0  0  0  0  0  0  0  0  0  0  0
  1  2  1  0
  2  3  2  0
  3  4  1  0
  4  5  1  0
  5  6  1  0
  6  7  2  0
  7  8  1  0
  8  9  2  0
  9 10  1  0
 10 11  2  0
 10 12  1  0
  9 13  1  0
 13 14  1  0
 14 15  1  0
 15 16  1  0
  4 17  2  0
 17 18  1  0
 18 19  2  0
 19 20  1  0
 20 21  2  0
 21 22  1  0
 22 23  2  0
 23  2  1  0
 12  6  1  0
 23 18  1  0
 16  8  1  0
  1 24  1  0
  1 25  1  0
  1 26  1  0
  5 27  1  0
 12 28  1  0
 13 29  1  0
 13 30  1  0
 14 31  1  0
 14 32  1  0
 15 33  1  0
 15 34  1  0
 16 35  1  0
 16 36  1  0
 19 37  1  0
 20 38  1  0
 21 39  1  0
 22 40  1  0
M  END
>  <meeko>  (77) 
{"is_sidechain": false}

>  <CID>  (77) 
Z56890527

>  <pose_index>  (77) 
2

>  <docking_score>  (77) 
-9.822

>  <num_viable_poses>  (77) 
6

>  <rmsd_pairwise_std>  (77) 
0.37809342793097084

>  <rmsd_to_best_std>  (77) 
0.45369549159383304

>  <MWT>  (77) 
307.3569999999997

>  <TPSA>  (77) 
83.56

>  <logP>  (77) 
2.6439200000000005

>  <HBD>  (77) 
2

>  <HBA>  (77) 
5

>  <SMILES>  (77) 
[H]c1c([H])c([H])c2c(C([H])([H])[H])nc(N([H])c3nc4c(c(=O)n3[H])C([H])([H])C([H])([H])C([H])([H])C4([H])[H])nc2c1[H]

$$$$
Z56974472_pose1
     RDKit          3D

 54 57  0  0  0  0  0  0  0  0999 V2000
   10.2740   45.4300   51.1870 C   0  0  0  0  0  0  0  0  0  0  0  0
    9.5290   46.2420   52.2150 C   0  0  0  0  0  0  0  0  0  0  0  0
   10.2600   46.8150   53.2720 C   0  0  0  0  0  0  0  0  0  0  0  0
    9.6200   47.5570   54.2600 C   0  0  0  0  0  0  0  0  0  0  0  0
    8.2450   47.7360   54.2010 C   0  0  0  0  0  0  0  0  0  0  0  0
    7.5100   47.1750   53.1520 C   0  0  0  0  0  0  0  0  0  0  0  0
    8.1280   46.4350   52.1330 C   0  0  0  0  0  0  0  0  0  0  0  0
    7.4010   45.8330   51.0950 N   0  0  0  0  0  0  0  0  0  0  0  0
    6.4640   44.8010   51.0420 C   0  0  0  0  0  0  0  0  0  0  0  0
    6.6970   43.8900   50.1110 N   0  0  0  0  0  0  0  0  0  0  0  0
    5.8340   42.8890   50.0440 C   0  0  0  0  0  0  0  0  0  0  0  0
    5.9630   41.8650   49.1060 N   0  0  0  0  0  0  0  0  0  0  0  0
    5.3110   41.5420   47.9050 C   0  0  0  0  0  0  0  0  0  0  0  0
    5.8060   41.9320   46.6520 C   0  0  0  0  0  0  0  0  0  0  0  0
    5.1610   41.5750   45.4640 C   0  0  0  0  0  0  0  0  0  0  0  0
    4.0060   40.8060   45.5030 C   0  0  0  0  0  0  0  0  0  0  0  0
    3.5010   40.3900   46.7300 C   0  0  0  0  0  0  0  0  0  0  0  0
    4.1430   40.7410   47.9320 C   0  0  0  0  0  0  0  0  0  0  0  0
    3.5520   40.2480   49.2280 C   0  0  0  0  0  0  0  0  0  0  0  0
    4.8000   42.7560   50.8660 N   0  0  0  0  0  0  0  0  0  0  0  0
    4.6340   43.6970   51.7900 C   0  0  0  0  0  0  0  0  0  0  0  0
    3.5380   43.5990   52.6660 N   0  0  0  0  0  0  0  0  0  0  0  0
    3.2650   44.8360   53.4040 C   0  0  0  0  0  0  0  0  0  0  0  0
    2.1940   44.6010   54.4680 C   0  0  0  0  0  0  0  0  0  0  0  0
    0.9410   43.9730   53.8710 C   0  0  0  0  0  0  0  0  0  0  0  0
    1.3000   42.6880   53.1330 C   0  0  0  0  0  0  0  0  0  0  0  0
    2.3730   42.9340   52.0730 C   0  0  0  0  0  0  0  0  0  0  0  0
    5.4500   44.7370   51.8940 N   0  0  0  0  0  0  0  0  0  0  0  0
   10.9335   44.7112   51.6952 H   0  0  0  0  0  0  0  0  0  0  0  0
    9.5543   44.8859   50.5577 H   0  0  0  0  0  0  0  0  0  0  0  0
   10.8779   46.1003   50.5577 H   0  0  0  0  0  0  0  0  0  0  0  0
   11.3501   46.6748   53.3178 H   0  0  0  0  0  0  0  0  0  0  0  0
   10.2006   47.9992   55.0831 H   0  0  0  0  0  0  0  0  0  0  0  0
    7.7329   48.3197   54.9801 H   0  0  0  0  0  0  0  0  0  0  0  0
    6.4196   47.3176   53.1252 H   0  0  0  0  0  0  0  0  0  0  0  0
    7.4220   46.2970   50.2000 H   0  0  0  0  0  0  0  0  0  0  0  0
    6.5810   41.1640   49.4860 H   0  0  0  0  0  0  0  0  0  0  0  0
    6.7252   42.5342   46.6027 H   0  0  0  0  0  0  0  0  0  0  0  0
    5.5694   41.9040   44.4971 H   0  0  0  0  0  0  0  0  0  0  0  0
    3.4940   40.5277   44.5701 H   0  0  0  0  0  0  0  0  0  0  0  0
    2.5873   39.7783   46.7614 H   0  0  0  0  0  0  0  0  0  0  0  0
    4.0930   40.6993   50.0728 H   0  0  0  0  0  0  0  0  0  0  0  0
    2.4905   40.5322   49.2785 H   0  0  0  0  0  0  0  0  0  0  0  0
    3.6412   39.1528   49.2785 H   0  0  0  0  0  0  0  0  0  0  0  0
    4.1900   45.1781   53.8912 H   0  0  0  0  0  0  0  0  0  0  0  0
    2.9030   45.5980   52.6981 H   0  0  0  0  0  0  0  0  0  0  0  0
    2.5980   43.9286   55.2392 H   0  0  0  0  0  0  0  0  0  0  0  0
    1.9191   45.5740   54.9012 H   0  0  0  0  0  0  0  0  0  0  0  0
    0.2296   43.7427   54.6778 H   0  0  0  0  0  0  0  0  0  0  0  0
    0.4863   44.6805   53.1620 H   0  0  0  0  0  0  0  0  0  0  0  0
    1.6761   41.9518   53.8587 H   0  0  0  0  0  0  0  0  0  0  0  0
    0.3961   42.3141   52.6299 H   0  0  0  0  0  0  0  0  0  0  0  0
    2.6856   41.9706   51.6440 H   0  0  0  0  0  0  0  0  0  0  0  0
    1.9555   43.5812   51.2877 H   0  0  0  0  0  0  0  0  0  0  0  0
  1  2  1  0
  2  3  2  0
  3  4  1  0
  4  5  2  0
  5  6  1  0
  6  7  2  0
  7  8  1  0
  8  9  1  0
  9 10  2  0
 10 11  1  0
 11 12  1  0
 12 13  1  0
 13 14  2  0
 14 15  1  0
 15 16  2  0
 16 17  1  0
 17 18  2  0
 18 19  1  0
 11 20  2  0
 20 21  1  0
 21 22  1  0
 22 23  1  0
 23 24  1  0
 24 25  1  0
 25 26  1  0
 26 27  1  0
 21 28  2  0
  7  2  1  0
 28  9  1  0
 18 13  1  0
 27 22  1  0
  1 29  1  0
  1 30  1  0
  1 31  1  0
  3 32  1  0
  4 33  1  0
  5 34  1  0
  6 35  1  0
  8 36  1  0
 12 37  1  0
 14 38  1  0
 15 39  1  0
 16 40  1  0
 17 41  1  0
 19 42  1  0
 19 43  1  0
 19 44  1  0
 23 45  1  0
 23 46  1  0
 24 47  1  0
 24 48  1  0
 25 49  1  0
 25 50  1  0
 26 51  1  0
 26 52  1  0
 27 53  1  0
 27 54  1  0
M  END
>  <meeko>  (78) 
{"is_sidechain": false}

>  <CID>  (78) 
Z56974472

>  <pose_index>  (78) 
1

>  <docking_score>  (78) 
-9.982

>  <num_viable_poses>  (78) 
7

>  <rmsd_pairwise_std>  (78) 
0.42617691349173537

>  <rmsd_to_best_std>  (78) 
0.5030465937987393

>  <MWT>  (78) 
374.4919999999996

>  <TPSA>  (78) 
65.97

>  <logP>  (78) 
4.965940000000003

>  <HBD>  (78) 
2

>  <HBA>  (78) 
6

>  <SMILES>  (78) 
[H]c1c([H])c([H])c(C([H])([H])[H])c(N([H])c2nc(N([H])c3c([H])c([H])c([H])c([H])c3C([H])([H])[H])nc(N3C([H])([H])C([H])([H])C([H])([H])C([H])([H])C3([H])[H])n2)c1[H]

$$$$
Z57110395_pose1
     RDKit          3D

 40 43  0  0  0  0  0  0  0  0999 V2000
   -0.5130   42.3150   53.8400 O   0  0  0  0  0  0  0  0  0  0  0  0
   -0.6640   43.5310   54.1830 C   0  0  0  0  0  0  0  0  0  0  0  0
   -1.7350   44.0480   54.6320 O   0  0  0  0  0  1  0  0  0  0  0  0
    0.5410   44.4430   54.0450 C   0  0  0  0  0  0  0  0  0  0  0  0
    0.7400   45.2130   52.8920 C   0  0  0  0  0  0  0  0  0  0  0  0
    1.8550   46.0560   52.7630 C   0  0  0  0  0  0  0  0  0  0  0  0
    2.8070   46.1570   53.7800 C   0  0  0  0  0  0  0  0  0  0  0  0
    3.9410   46.9750   53.7170 N   0  0  0  0  0  0  0  0  0  0  0  0
    5.2760   46.7620   53.3950 C   0  0  0  0  0  0  0  0  0  0  0  0
    5.4780   45.9560   52.3440 N   0  0  0  0  0  0  0  0  0  0  0  0
    6.7540   45.7010   51.9810 C   0  0  0  0  0  0  0  0  0  0  0  0
    6.8670   44.7850   50.8340 C   0  0  0  0  0  0  0  0  0  0  0  0
    5.9150   43.7720   50.6350 C   0  0  0  0  0  0  0  0  0  0  0  0
    6.0130   42.8990   49.5490 C   0  0  0  0  0  0  0  0  0  0  0  0
    7.0700   43.0210   48.6500 C   0  0  0  0  0  0  0  0  0  0  0  0
    8.0330   44.0090   48.8400 C   0  0  0  0  0  0  0  0  0  0  0  0
    7.9350   44.8820   49.9250 C   0  0  0  0  0  0  0  0  0  0  0  0
    7.8600   46.2570   52.6360 C   0  0  0  0  0  0  0  0  0  0  0  0
    9.2260   46.0660   52.2890 C   0  0  0  0  0  0  0  0  0  0  0  0
   10.2400   46.6760   53.0220 C   0  0  0  0  0  0  0  0  0  0  0  0
    9.9070   47.4830   54.1010 C   0  0  0  0  0  0  0  0  0  0  0  0
    8.5630   47.6760   54.4330 C   0  0  0  0  0  0  0  0  0  0  0  0
    7.5330   47.0790   53.7150 C   0  0  0  0  0  0  0  0  0  0  0  0
    6.2740   47.3220   54.0860 N   0  0  0  0  0  0  0  0  0  0  0  0
    2.6050   45.3840   54.9360 C   0  0  0  0  0  0  0  0  0  0  0  0
    1.4930   44.5420   55.0670 C   0  0  0  0  0  0  0  0  0  0  0  0
    0.0088   45.1560   52.0722 H   0  0  0  0  0  0  0  0  0  0  0  0
    1.9813   46.6477   51.8444 H   0  0  0  0  0  0  0  0  0  0  0  0
    3.8030   47.9480   53.9470 H   0  0  0  0  0  0  0  0  0  0  0  0
    5.0808   43.6645   51.3439 H   0  0  0  0  0  0  0  0  0  0  0  0
    5.2553   42.1150   49.4037 H   0  0  0  0  0  0  0  0  0  0  0  0
    7.1440   42.3378   47.7911 H   0  0  0  0  0  0  0  0  0  0  0  0
    8.8718   44.1016   48.1344 H   0  0  0  0  0  0  0  0  0  0  0  0
    8.7033   45.6557   50.0705 H   0  0  0  0  0  0  0  0  0  0  0  0
    9.4844   45.4283   51.4307 H   0  0  0  0  0  0  0  0  0  0  0  0
   11.2941   46.5201   52.7490 H   0  0  0  0  0  0  0  0  0  0  0  0
   10.6973   47.9686   54.6923 H   0  0  0  0  0  0  0  0  0  0  0  0
    8.3125   48.3201   55.2888 H   0  0  0  0  0  0  0  0  0  0  0  0
    3.3360   45.4413   55.7560 H   0  0  0  0  0  0  0  0  0  0  0  0
    1.3660   43.9504   55.9856 H   0  0  0  0  0  0  0  0  0  0  0  0
  1  2  2  0
  2  3  1  0
  2  4  1  0
  4  5  2  0
  5  6  1  0
  6  7  2  0
  7  8  1  0
  8  9  1  0
  9 10  2  0
 10 11  1  0
 11 12  1  0
 12 13  2  0
 13 14  1  0
 14 15  2  0
 15 16  1  0
 16 17  2  0
 11 18  2  0
 18 19  1  0
 19 20  2  0
 20 21  1  0
 21 22  2  0
 22 23  1  0
 23 24  2  0
  7 25  1  0
 25 26  2  0
 26  4  1  0
 24  9  1  0
 17 12  1  0
 23 18  1  0
  5 27  1  0
  6 28  1  0
  8 29  1  0
 13 30  1  0
 14 31  1  0
 15 32  1  0
 16 33  1  0
 17 34  1  0
 19 35  1  0
 20 36  1  0
 21 37  1  0
 22 38  1  0
 25 39  1  0
 26 40  1  0
M  CHG  1   3  -1
M  END
>  <meeko>  (79) 
{"is_sidechain": false}

>  <CID>  (79) 
Z57110395

>  <pose_index>  (79) 
1

>  <docking_score>  (79) 
-10.546

>  <num_viable_poses>  (79) 
7

>  <rmsd_pairwise_std>  (79) 
0.437934024225924

>  <rmsd_to_best_std>  (79) 
0.2648030557963227

>  <MWT>  (79) 
340.3619999999998

>  <TPSA>  (79) 
77.94

>  <logP>  (79) 
3.403900000000001

>  <HBD>  (79) 
1

>  <HBA>  (79) 
5

>  <SMILES>  (79) 
[H]c1c([H])c([H])c(-c2nc(N([H])c3c([H])c([H])c(C(=O)[O-])c([H])c3[H])nc3c([H])c([H])c([H])c([H])c23)c([H])c1[H]

$$$$
Z57346758_pose2
     RDKit          3D

 41 43  0  0  0  0  0  0  0  0999 V2000
   11.7827   48.2038   55.5846 C   0  0  0  0  0  0  0  0  0  0  0  0
   10.4910   47.6897   55.8842 O   0  0  0  0  0  0  0  0  0  0  0  0
    9.6875   47.3880   54.8205 C   0  0  0  0  0  0  0  0  0  0  0  0
    8.6164   48.1462   54.3547 C   0  0  0  0  0  0  0  0  0  0  0  0
    7.8729   47.7179   53.2450 C   0  0  0  0  0  0  0  0  0  0  0  0
    8.1749   46.5271   52.5779 C   0  0  0  0  0  0  0  0  0  0  0  0
    7.4796   46.0554   51.4618 N   0  0  0  0  0  0  0  0  0  0  0  0
    6.5456   45.0429   51.2552 C   0  0  0  0  0  0  0  0  0  0  0  0
    5.4268   45.1598   51.9835 N   0  0  0  0  0  0  0  0  0  0  0  0
    4.4733   44.2214   51.8458 C   0  0  0  0  0  0  0  0  0  0  0  0
    3.2892   44.3351   52.6066 N   0  0  0  0  0  0  0  0  0  0  0  0
    3.4546   44.4171   54.0624 C   0  0  0  0  0  0  0  0  0  0  0  0
    2.3095   43.7056   54.7911 C   0  0  0  0  0  0  0  0  0  0  0  0
    1.3926   43.1656   53.8334 O   0  0  0  0  0  0  0  0  0  0  0  0
    4.6069   43.1564   50.9407 C   0  0  0  0  0  0  0  0  0  0  0  0
    3.6301   42.1555   50.6998 C   0  0  0  0  0  0  0  0  0  0  0  0
    3.8648   41.1307   49.7855 C   0  0  0  0  0  0  0  0  0  0  0  0
    5.0726   41.0955   49.1030 C   0  0  0  0  0  0  0  0  0  0  0  0
    6.0280   42.0881   49.3345 C   0  0  0  0  0  0  0  0  0  0  0  0
    5.8136   43.1215   50.2398 C   0  0  0  0  0  0  0  0  0  0  0  0
    6.7680   44.0408   50.3991 N   0  0  0  0  0  0  0  0  0  0  0  0
    9.2615   45.7779   53.0563 C   0  0  0  0  0  0  0  0  0  0  0  0
   10.0067   46.2019   54.1622 C   0  0  0  0  0  0  0  0  0  0  0  0
   12.5052   47.3756   55.5380 H   0  0  0  0  0  0  0  0  0  0  0  0
   11.7553   48.7215   54.6144 H   0  0  0  0  0  0  0  0  0  0  0  0
   12.0867   48.9118   56.3696 H   0  0  0  0  0  0  0  0  0  0  0  0
    8.3516   49.0867   54.8600 H   0  0  0  0  0  0  0  0  0  0  0  0
    7.0326   48.3335   52.8914 H   0  0  0  0  0  0  0  0  0  0  0  0
    7.7168   46.4615   50.5697 H   0  0  0  0  0  0  0  0  0  0  0  0
    2.6865   43.5374   52.3968 H   0  0  0  0  0  0  0  0  0  0  0  0
    4.4072   43.9438   54.3426 H   0  0  0  0  0  0  0  0  0  0  0  0
    3.4479   45.4776   54.3546 H   0  0  0  0  0  0  0  0  0  0  0  0
    2.7178   42.8906   55.4068 H   0  0  0  0  0  0  0  0  0  0  0  0
    1.7831   44.4255   55.4350 H   0  0  0  0  0  0  0  0  0  0  0  0
    1.0735   43.9159   53.3018 H   0  0  0  0  0  0  0  0  0  0  0  0
    2.6740   42.1893   51.2426 H   0  0  0  0  0  0  0  0  0  0  0  0
    3.1018   40.3587   49.6068 H   0  0  0  0  0  0  0  0  0  0  0  0
    5.2769   40.2895   48.3828 H   0  0  0  0  0  0  0  0  0  0  0  0
    6.9794   42.0510   48.7837 H   0  0  0  0  0  0  0  0  0  0  0  0
    9.5325   44.8388   52.5517 H   0  0  0  0  0  0  0  0  0  0  0  0
   10.8523   45.5933   54.5151 H   0  0  0  0  0  0  0  0  0  0  0  0
  1  2  1  0
  2  3  1  0
  3  4  2  0
  4  5  1  0
  5  6  2  0
  6  7  1  0
  7  8  1  0
  8  9  2  0
  9 10  1  0
 10 11  1  0
 11 12  1  0
 12 13  1  0
 13 14  1  0
 10 15  2  0
 15 16  1  0
 16 17  2  0
 17 18  1  0
 18 19  2  0
 19 20  1  0
 20 21  2  0
  6 22  1  0
 22 23  2  0
 23  3  1  0
 21  8  1  0
 20 15  1  0
  1 24  1  0
  1 25  1  0
  1 26  1  0
  4 27  1  0
  5 28  1  0
  7 29  1  0
 11 30  1  0
 12 31  1  0
 12 32  1  0
 13 33  1  0
 13 34  1  0
 14 35  1  0
 16 36  1  0
 17 37  1  0
 18 38  1  0
 19 39  1  0
 22 40  1  0
 23 41  1  0
M  END
>  <meeko>  (80) 
{"is_sidechain": false}

>  <CID>  (80) 
Z57346758

>  <pose_index>  (80) 
2

>  <docking_score>  (80) 
-8.611

>  <num_viable_poses>  (80) 
6

>  <rmsd_pairwise_std>  (80) 
0.30774795610576205

>  <rmsd_to_best_std>  (80) 
0.09531872048801367

>  <MWT>  (80) 
310.3569999999997

>  <TPSA>  (80) 
79.3

>  <logP>  (80) 
2.786200000000001

>  <HBD>  (80) 
3

>  <HBA>  (80) 
6

>  <SMILES>  (80) 
[H]OC([H])([H])C([H])([H])N([H])c1nc(N([H])c2c([H])c([H])c(OC([H])([H])[H])c([H])c2[H])nc2c([H])c([H])c([H])c([H])c12

$$$$
Z645226424_pose1
     RDKit          3D

 41 44  0  0  0  0  0  0  0  0999 V2000
    9.8980   47.1800   53.7800 C   0  0  0  0  0  0  0  0  0  0  0  0
   10.1240   46.6820   52.5030 C   0  0  0  0  0  0  0  0  0  0  0  0
    9.0420   46.2840   51.7230 C   0  0  0  0  0  0  0  0  0  0  0  0
    7.7540   46.4040   52.2450 C   0  0  0  0  0  0  0  0  0  0  0  0
    6.5510   45.9720   51.4330 C   0  0  0  0  0  0  0  0  0  0  0  0
    6.8960   45.2010   50.2760 O   0  0  0  0  0  0  0  0  0  0  0  0
    6.4410   43.9140   50.1970 C   0  0  0  0  0  0  0  0  0  0  0  0
    7.1400   42.8190   49.6910 C   0  0  0  0  0  0  0  0  0  0  0  0
    6.5510   41.5520   49.6860 C   0  0  0  0  0  0  0  0  0  0  0  0
    5.2610   41.3730   50.1850 C   0  0  0  0  0  0  0  0  0  0  0  0
    4.5440   42.4610   50.6990 C   0  0  0  0  0  0  0  0  0  0  0  0
    3.1470   42.2750   51.2410 C   0  0  0  0  0  0  0  0  0  0  0  0
    3.1450   42.5490   52.6780 N   0  0  0  0  0  0  0  0  0  0  0  0
    2.8960   43.9020   52.9300 C   0  0  0  0  0  0  0  0  0  0  0  0
    1.9500   44.5290   52.2090 N   0  0  0  0  0  0  0  0  0  0  0  0
    1.7170   45.8370   52.4580 C   0  0  0  0  0  0  0  0  0  0  0  0
    2.3190   46.6320   53.3520 N   0  0  0  0  0  0  0  0  0  0  0  0
    3.2820   45.9930   54.0390 C   0  0  0  0  0  0  0  0  0  0  0  0
    4.0810   46.5480   55.0030 N   0  0  0  0  0  0  0  0  0  0  0  0
    4.8850   45.5770   55.3800 C   0  0  0  0  0  0  0  0  0  0  0  0
    4.6300   44.4180   54.7010 N   0  0  0  0  0  0  0  0  0  0  0  0
    3.5890   44.6600   53.8510 C   0  0  0  0  0  0  0  0  0  0  0  0
    5.1500   43.7260   50.7030 C   0  0  0  0  0  0  0  0  0  0  0  0
    7.5190   46.8820   53.4950 N   0  0  0  0  0  0  0  0  0  0  0  0
    8.5890   47.2590   54.2270 C   0  0  0  0  0  0  0  0  0  0  0  0
   10.7342   47.5023   54.4179 H   0  0  0  0  0  0  0  0  0  0  0  0
   11.1490   46.6029   52.1117 H   0  0  0  0  0  0  0  0  0  0  0  0
    9.2000   45.8815   50.7116 H   0  0  0  0  0  0  0  0  0  0  0  0
    5.8963   45.3644   52.0750 H   0  0  0  0  0  0  0  0  0  0  0  0
    6.0516   46.8859   51.0787 H   0  0  0  0  0  0  0  0  0  0  0  0
    8.1574   42.9528   49.2948 H   0  0  0  0  0  0  0  0  0  0  0  0
    7.1075   40.6914   49.2865 H   0  0  0  0  0  0  0  0  0  0  0  0
    4.8043   40.3723   50.1749 H   0  0  0  0  0  0  0  0  0  0  0  0
    2.4607   42.9690   50.7337 H   0  0  0  0  0  0  0  0  0  0  0  0
    2.8175   41.2408   51.0628 H   0  0  0  0  0  0  0  0  0  0  0  0
    4.0940   42.4040   53.0270 H   0  0  0  0  0  0  0  0  0  0  0  0
    0.9325   46.3089   51.8483 H   0  0  0  0  0  0  0  0  0  0  0  0
    5.6661   45.6845   56.1470 H   0  0  0  0  0  0  0  0  0  0  0  0
    5.1280   43.5430   54.7910 H   0  0  0  0  0  0  0  0  0  0  0  0
    4.6000   44.5865   51.1116 H   0  0  0  0  0  0  0  0  0  0  0  0
    8.4108   47.6524   55.2387 H   0  0  0  0  0  0  0  0  0  0  0  0
  1  2  2  0
  2  3  1  0
  3  4  2  0
  4  5  1  0
  5  6  1  0
  6  7  1  0
  7  8  2  0
  8  9  1  0
  9 10  2  0
 10 11  1  0
 11 12  1  0
 12 13  1  0
 13 14  1  0
 14 15  2  0
 15 16  1  0
 16 17  2  0
 17 18  1  0
 18 19  1  0
 19 20  2  0
 20 21  1  0
 21 22  1  0
 11 23  2  0
  4 24  1  0
 24 25  2  0
 25  1  1  0
 23  7  1  0
 22 14  1  0
 22 18  2  0
  1 26  1  0
  2 27  1  0
  3 28  1  0
  5 29  1  0
  5 30  1  0
  8 31  1  0
  9 32  1  0
 10 33  1  0
 12 34  1  0
 12 35  1  0
 13 36  1  0
 16 37  1  0
 20 38  1  0
 21 39  1  0
 23 40  1  0
 25 41  1  0
M  END
>  <meeko>  (81) 
{"is_sidechain": false}

>  <CID>  (81) 
Z645226424

>  <pose_index>  (81) 
1

>  <docking_score>  (81) 
-9.673

>  <num_viable_poses>  (81) 
5

>  <rmsd_pairwise_std>  (81) 
0.3506717784611034

>  <rmsd_to_best_std>  (81) 
0.49411418994450307

>  <MWT>  (81) 
332.36699999999973

>  <TPSA>  (81) 
88.61

>  <logP>  (81) 
2.939

>  <HBD>  (81) 
2

>  <HBA>  (81) 
6

>  <SMILES>  (81) 
[H]c1nc(N([H])C([H])([H])c2c([H])c([H])c([H])c(OC([H])([H])c3nc([H])c([H])c([H])c3[H])c2[H])c2c(n1)nc([H])n2[H]

$$$$
Z646130978_pose2
     RDKit          3D

 42 44  0  0  0  0  0  0  0  0999 V2000
    5.6474   42.0872   51.1735 C   0  0  0  0  0  0  0  0  0  0  0  0
    5.7834   43.0774   50.1162 N   0  0  0  0  0  0  0  0  0  0  0  0
    4.6784   43.1649   49.1761 C   0  0  0  0  0  0  0  0  0  0  0  0
    6.6766   44.1489   50.1788 C   0  0  0  0  0  0  0  0  0  0  0  0
    6.6540   45.0687   49.3572 O   0  0  0  0  0  0  0  0  0  0  0  0
    7.7470   44.1370   51.2737 C   0  0  0  0  0  0  0  0  0  0  0  0
    8.5566   45.3029   51.2044 O   0  0  0  0  0  0  0  0  0  0  0  0
    8.5132   46.1606   52.2688 C   0  0  0  0  0  0  0  0  0  0  0  0
    9.5614   47.0819   52.3137 C   0  0  0  0  0  0  0  0  0  0  0  0
    9.6397   48.0195   53.3426 C   0  0  0  0  0  0  0  0  0  0  0  0
    8.6689   48.0382   54.3406 C   0  0  0  0  0  0  0  0  0  0  0  0
    7.6147   47.1145   54.3200 C   0  0  0  0  0  0  0  0  0  0  0  0
    6.5514   47.1499   55.3960 C   0  0  0  0  0  0  0  0  0  0  0  0
    5.6597   46.0065   55.2609 N   0  0  0  0  0  0  0  0  0  0  0  0
    4.3410   46.2718   54.9131 C   0  0  0  0  0  0  0  0  0  0  0  0
    3.5512   47.0730   55.6635 N   0  0  0  0  0  0  0  0  0  0  0  0
    2.2752   47.2905   55.2775 C   0  0  0  0  0  0  0  0  0  0  0  0
    1.6439   46.8061   54.2037 N   0  0  0  0  0  0  0  0  0  0  0  0
    2.4277   45.9972   53.4723 C   0  0  0  0  0  0  0  0  0  0  0  0
    2.0471   45.3473   52.3289 N   0  0  0  0  0  0  0  0  0  0  0  0
    3.1038   44.6594   51.9610 C   0  0  0  0  0  0  0  0  0  0  0  0
    4.1516   44.8440   52.8193 N   0  0  0  0  0  0  0  0  0  0  0  0
    3.7433   45.7136   53.7939 C   0  0  0  0  0  0  0  0  0  0  0  0
    7.5404   46.1812   53.2709 C   0  0  0  0  0  0  0  0  0  0  0  0
    6.0306   41.1186   50.8201 H   0  0  0  0  0  0  0  0  0  0  0  0
    6.2223   42.4098   52.0541 H   0  0  0  0  0  0  0  0  0  0  0  0
    4.5865   41.9847   51.4455 H   0  0  0  0  0  0  0  0  0  0  0  0
    5.0685   43.3819   48.1708 H   0  0  0  0  0  0  0  0  0  0  0  0
    4.1343   42.2090   49.1598 H   0  0  0  0  0  0  0  0  0  0  0  0
    3.9959   43.9699   49.4862 H   0  0  0  0  0  0  0  0  0  0  0  0
    7.2558   44.0975   52.2571 H   0  0  0  0  0  0  0  0  0  0  0  0
    8.3881   43.2550   51.1286 H   0  0  0  0  0  0  0  0  0  0  0  0
   10.3328   47.0678   51.5297 H   0  0  0  0  0  0  0  0  0  0  0  0
   10.4675   48.7436   53.3659 H   0  0  0  0  0  0  0  0  0  0  0  0
    8.7294   48.7816   55.1492 H   0  0  0  0  0  0  0  0  0  0  0  0
    7.0336   47.1197   56.3842 H   0  0  0  0  0  0  0  0  0  0  0  0
    5.9661   48.0754   55.2913 H   0  0  0  0  0  0  0  0  0  0  0  0
    6.0654   45.2502   54.7277 H   0  0  0  0  0  0  0  0  0  0  0  0
    1.6812   47.9488   55.9285 H   0  0  0  0  0  0  0  0  0  0  0  0
    3.1410   44.0138   51.0712 H   0  0  0  0  0  0  0  0  0  0  0  0
    5.0573   44.4036   52.7552 H   0  0  0  0  0  0  0  0  0  0  0  0
    6.7093   45.4614   53.2391 H   0  0  0  0  0  0  0  0  0  0  0  0
  1  2  1  0
  2  3  1  0
  2  4  1  0
  4  5  2  0
  4  6  1  0
  6  7  1  0
  7  8  1  0
  8  9  2  0
  9 10  1  0
 10 11  2  0
 11 12  1  0
 12 13  1  0
 13 14  1  0
 14 15  1  0
 15 16  2  0
 16 17  1  0
 17 18  2  0
 18 19  1  0
 19 20  1  0
 20 21  2  0
 21 22  1  0
 22 23  1  0
 12 24  2  0
 24  8  1  0
 23 15  1  0
 23 19  2  0
  1 25  1  0
  1 26  1  0
  1 27  1  0
  3 28  1  0
  3 29  1  0
  3 30  1  0
  6 31  1  0
  6 32  1  0
  9 33  1  0
 10 34  1  0
 11 35  1  0
 13 36  1  0
 13 37  1  0
 14 38  1  0
 17 39  1  0
 21 40  1  0
 22 41  1  0
 24 42  1  0
M  END
>  <meeko>  (82) 
{"is_sidechain": false}

>  <CID>  (82) 
Z646130978

>  <pose_index>  (82) 
2

>  <docking_score>  (82) 
-8.528

>  <num_viable_poses>  (82) 
5

>  <rmsd_pairwise_std>  (82) 
0.2053265529646305

>  <rmsd_to_best_std>  (82) 
0.20703053117686054

>  <MWT>  (82) 
326.3599999999997

>  <TPSA>  (82) 
96.03

>  <logP>  (82) 
1.4319999999999995

>  <HBD>  (82) 
2

>  <HBA>  (82) 
6

>  <SMILES>  (82) 
[H]c1nc(N([H])C([H])([H])c2c([H])c([H])c([H])c(OC([H])([H])C(=O)N(C([H])([H])[H])C([H])([H])[H])c2[H])c2c(n1)nc([H])n2[H]

$$$$
Z646214330_pose1
     RDKit          3D

 47 50  0  0  0  0  0  0  0  0999 V2000
    1.2860   44.9630   55.5040 C   0  0  0  0  0  0  0  0  0  0  0  0
    1.3000   44.0490   54.4550 C   0  0  0  0  0  0  0  0  0  0  0  0
    2.3690   44.0300   53.5510 C   0  0  0  0  0  0  0  0  0  0  0  0
    2.3780   43.0650   52.3920 C   0  0  0  0  0  0  0  0  0  0  0  0
    3.6520   42.4220   52.3220 O   0  0  0  0  0  0  0  0  0  0  0  0
    3.9480   41.9830   50.9980 C   0  0  0  0  0  0  0  0  0  0  0  0
    5.3370   42.4820   50.5780 C   0  0  0  0  0  0  0  0  0  0  0  0
    5.4360   44.0100   50.6450 C   0  0  0  0  0  0  0  0  0  0  0  0
    6.8440   44.4810   50.2830 C   0  0  0  0  0  0  0  0  0  0  0  0
    7.5690   43.4820   49.3830 C   0  0  0  0  0  0  0  0  0  0  0  0
    6.5800   42.7230   48.5130 C   0  0  0  0  0  0  0  0  0  0  0  0
    5.6080   41.9860   49.2590 O   0  0  0  0  0  0  0  0  0  0  0  0
    3.4140   44.9590   53.7090 C   0  0  0  0  0  0  0  0  0  0  0  0
    3.4270   45.8800   54.7660 C   0  0  0  0  0  0  0  0  0  0  0  0
    4.4440   46.8310   54.9670 N   0  0  0  0  0  0  0  0  0  0  0  0
    5.7000   46.8480   54.4890 C   0  0  0  0  0  0  0  0  0  0  0  0
    6.8490   46.4750   55.0170 N   0  0  0  0  0  0  0  0  0  0  0  0
    7.7700   46.7390   54.0360 C   0  0  0  0  0  0  0  0  0  0  0  0
    9.1590   46.5600   53.9990 C   0  0  0  0  0  0  0  0  0  0  0  0
    9.8420   46.9340   52.8310 C   0  0  0  0  0  0  0  0  0  0  0  0
    9.1580   47.4710   51.7310 C   0  0  0  0  0  0  0  0  0  0  0  0
    7.7700   47.6540   51.7550 C   0  0  0  0  0  0  0  0  0  0  0  0
    7.1330   47.2700   52.9290 C   0  0  0  0  0  0  0  0  0  0  0  0
    5.8020   47.3390   53.2100 O   0  0  0  0  0  0  0  0  0  0  0  0
    2.3380   45.8690   55.6540 C   0  0  0  0  0  0  0  0  0  0  0  0
    0.4466   44.9719   56.2149 H   0  0  0  0  0  0  0  0  0  0  0  0
    0.4684   43.3389   54.3355 H   0  0  0  0  0  0  0  0  0  0  0  0
    1.5924   42.3089   52.5375 H   0  0  0  0  0  0  0  0  0  0  0  0
    2.1895   43.6117   51.4562 H   0  0  0  0  0  0  0  0  0  0  0  0
    3.9309   40.8836   50.9664 H   0  0  0  0  0  0  0  0  0  0  0  0
    3.1945   42.3878   50.3064 H   0  0  0  0  0  0  0  0  0  0  0  0
    6.0956   42.1024   51.2784 H   0  0  0  0  0  0  0  0  0  0  0  0
    4.7164   44.4490   49.9382 H   0  0  0  0  0  0  0  0  0  0  0  0
    5.2105   44.3324   51.6723 H   0  0  0  0  0  0  0  0  0  0  0  0
    6.7718   45.4447   49.7576 H   0  0  0  0  0  0  0  0  0  0  0  0
    7.4197   44.5777   51.2153 H   0  0  0  0  0  0  0  0  0  0  0  0
    8.2751   44.0246   48.7372 H   0  0  0  0  0  0  0  0  0  0  0  0
    8.1064   42.7614   50.0170 H   0  0  0  0  0  0  0  0  0  0  0  0
    6.0524   43.4466   47.8742 H   0  0  0  0  0  0  0  0  0  0  0  0
    7.1592   41.9928   47.9288 H   0  0  0  0  0  0  0  0  0  0  0  0
    4.2419   44.9627   52.9847 H   0  0  0  0  0  0  0  0  0  0  0  0
    4.2210   47.5530   55.6370 H   0  0  0  0  0  0  0  0  0  0  0  0
    9.6986   46.1387   54.8600 H   0  0  0  0  0  0  0  0  0  0  0  0
   10.9329   46.8035   52.7777 H   0  0  0  0  0  0  0  0  0  0  0  0
    9.7233   47.7543   50.8309 H   0  0  0  0  0  0  0  0  0  0  0  0
    7.2196   48.0743   50.9003 H   0  0  0  0  0  0  0  0  0  0  0  0
    2.3137   46.5894   56.4849 H   0  0  0  0  0  0  0  0  0  0  0  0
  1  2  2  0
  2  3  1  0
  3  4  1  0
  4  5  1  0
  5  6  1  0
  6  7  1  0
  7  8  1  0
  8  9  1  0
  9 10  1  0
 10 11  1  0
 11 12  1  0
  3 13  2  0
 13 14  1  0
 14 15  1  0
 15 16  1  0
 16 17  2  0
 17 18  1  0
 18 19  2  0
 19 20  1  0
 20 21  2  0
 21 22  1  0
 22 23  2  0
 23 24  1  0
 14 25  2  0
 25  1  1  0
 12  7  1  0
 24 16  1  0
 23 18  1  0
  1 26  1  0
  2 27  1  0
  4 28  1  0
  4 29  1  0
  6 30  1  0
  6 31  1  0
  7 32  1  0
  8 33  1  0
  8 34  1  0
  9 35  1  0
  9 36  1  0
 10 37  1  0
 10 38  1  0
 11 39  1  0
 11 40  1  0
 13 41  1  0
 15 42  1  0
 19 43  1  0
 20 44  1  0
 21 45  1  0
 22 46  1  0
 25 47  1  0
M  END
>  <meeko>  (83) 
{"is_sidechain": false}

>  <CID>  (83) 
Z646214330

>  <pose_index>  (83) 
1

>  <docking_score>  (83) 
-9.076

>  <num_viable_poses>  (83) 
5

>  <rmsd_pairwise_std>  (83) 
0.31536814006478703

>  <rmsd_to_best_std>  (83) 
0.24894507457295986

>  <MWT>  (83) 
338.40699999999964

>  <TPSA>  (83) 
56.52

>  <logP>  (83) 
4.657100000000003

>  <HBD>  (83) 
1

>  <HBA>  (83) 
5

>  <SMILES>  (83) 
[H]c1c([H])c(N([H])c2nc3c([H])c([H])c([H])c([H])c3o2)c([H])c(C([H])([H])OC([H])([H])C2([H])OC([H])([H])C([H])([H])C([H])([H])C2([H])[H])c1[H]

$$$$
Z89684168_pose3
     RDKit          3D

 38 40  0  0  0  0  0  0  0  0999 V2000
    6.6957   46.5455   51.3325 N   0  0  0  0  0  0  0  0  0  0  0  0
    7.6165   46.4123   52.0262 C   0  0  0  0  0  0  0  0  0  0  0  0
    8.7231   46.2304   52.9233 C   0  0  0  0  0  0  0  0  0  0  0  0
    9.9580   45.8132   52.4076 C   0  0  0  0  0  0  0  0  0  0  0  0
   11.0494   45.6287   53.2571 C   0  0  0  0  0  0  0  0  0  0  0  0
   10.9108   45.8488   54.6260 C   0  0  0  0  0  0  0  0  0  0  0  0
    9.6858   46.2648   55.1496 C   0  0  0  0  0  0  0  0  0  0  0  0
    8.5972   46.4766   54.2985 C   0  0  0  0  0  0  0  0  0  0  0  0
    7.3748   46.8628   54.7851 O   0  0  0  0  0  0  0  0  0  0  0  0
    6.5783   45.7896   55.3198 C   0  0  0  0  0  0  0  0  0  0  0  0
    5.2418   45.5727   54.6340 C   0  0  0  0  0  0  0  0  0  0  0  0
    4.2434   46.4022   54.9240 N   0  0  0  0  0  0  0  0  0  0  0  0
    3.1059   46.1587   54.3011 C   0  0  0  0  0  0  0  0  0  0  0  0
    2.0384   46.9779   54.6030 N   0  0  0  0  0  0  0  0  0  0  0  0
    2.9256   45.2080   53.4022 N   0  0  0  0  0  0  0  0  0  0  0  0
    3.9732   44.4302   53.1540 C   0  0  0  0  0  0  0  0  0  0  0  0
    3.9157   43.3937   52.2238 N   0  0  0  0  0  0  0  0  0  0  0  0
    4.1154   43.3155   50.8406 C   0  0  0  0  0  0  0  0  0  0  0  0
    3.0951   43.0728   49.9156 C   0  0  0  0  0  0  0  0  0  0  0  0
    3.3563   43.0300   48.5411 C   0  0  0  0  0  0  0  0  0  0  0  0
    4.6480   43.2380   48.0655 C   0  0  0  0  0  0  0  0  0  0  0  0
    5.6771   43.4906   48.9663 C   0  0  0  0  0  0  0  0  0  0  0  0
    5.4100   43.5315   50.3381 C   0  0  0  0  0  0  0  0  0  0  0  0
    5.1571   44.5783   53.7461 N   0  0  0  0  0  0  0  0  0  0  0  0
   10.0671   45.6305   51.3284 H   0  0  0  0  0  0  0  0  0  0  0  0
   12.0187   45.3097   52.8464 H   0  0  0  0  0  0  0  0  0  0  0  0
   11.7694   45.6943   55.2960 H   0  0  0  0  0  0  0  0  0  0  0  0
    9.5769   46.4261   56.2322 H   0  0  0  0  0  0  0  0  0  0  0  0
    7.1593   44.8595   55.2346 H   0  0  0  0  0  0  0  0  0  0  0  0
    6.3465   46.0696   56.3580 H   0  0  0  0  0  0  0  0  0  0  0  0
    2.0649   47.2638   55.5700 H   0  0  0  0  0  0  0  0  0  0  0  0
    1.1744   46.5769   54.2567 H   0  0  0  0  0  0  0  0  0  0  0  0
    3.5822   42.5556   52.6771 H   0  0  0  0  0  0  0  0  0  0  0  0
    2.0679   42.9125   50.2749 H   0  0  0  0  0  0  0  0  0  0  0  0
    2.5376   42.8313   47.8338 H   0  0  0  0  0  0  0  0  0  0  0  0
    4.8532   43.2028   46.9854 H   0  0  0  0  0  0  0  0  0  0  0  0
    6.7005   43.6581   48.5997 H   0  0  0  0  0  0  0  0  0  0  0  0
    6.2317   43.7374   51.0399 H   0  0  0  0  0  0  0  0  0  0  0  0
  1  2  3  0
  2  3  1  0
  3  4  2  0
  4  5  1  0
  5  6  2  0
  6  7  1  0
  7  8  2  0
  8  9  1  0
  9 10  1  0
 10 11  1  0
 11 12  2  0
 12 13  1  0
 13 14  1  0
 13 15  2  0
 15 16  1  0
 16 17  1  0
 17 18  1  0
 18 19  2  0
 19 20  1  0
 20 21  2  0
 21 22  1  0
 22 23  2  0
 16 24  2  0
  8  3  1  0
 24 11  1  0
 23 18  1  0
  4 25  1  0
  5 26  1  0
  6 27  1  0
  7 28  1  0
 10 29  1  0
 10 30  1  0
 14 31  1  0
 14 32  1  0
 17 33  1  0
 19 34  1  0
 20 35  1  0
 21 36  1  0
 22 37  1  0
 23 38  1  0
M  END
>  <meeko>  (84) 
{"is_sidechain": false}

>  <CID>  (84) 
Z89684168

>  <pose_index>  (84) 
3

>  <docking_score>  (84) 
-9.007

>  <num_viable_poses>  (84) 
5

>  <rmsd_pairwise_std>  (84) 
0.32991262113962067

>  <rmsd_to_best_std>  (84) 
0.18307684992999584

>  <MWT>  (84) 
318.33999999999975

>  <TPSA>  (84) 
109.74

>  <logP>  (84) 
2.64808

>  <HBD>  (84) 
2

>  <HBA>  (84) 
7

>  <SMILES>  (84) 
[H]c1c([H])c([H])c(N([H])c2nc(N([H])[H])nc(C([H])([H])Oc3c([H])c([H])c([H])c([H])c3C#N)n2)c([H])c1[H]

$$$$
Z91647328_pose3
     RDKit          3D

 43 45  0  0  0  0  0  0  0  0999 V2000
    0.9087   45.8584   54.7299 C   0  0  0  0  0  0  0  0  0  0  0  0
    1.4453   44.9906   53.6315 C   0  0  0  0  0  0  0  0  0  0  0  0
    1.6831   45.5191   52.3614 C   0  0  0  0  0  0  0  0  0  0  0  0
    2.2155   44.7173   51.3424 C   0  0  0  0  0  0  0  0  0  0  0  0
    2.5224   43.3712   51.5626 C   0  0  0  0  0  0  0  0  0  0  0  0
    3.0827   42.5271   50.5971 N   0  0  0  0  0  0  0  0  0  0  0  0
    4.3888   42.2087   50.2322 C   0  0  0  0  0  0  0  0  0  0  0  0
    4.6655   41.5720   49.1001 N   0  0  0  0  0  0  0  0  0  0  0  0
    5.9427   41.3346   48.8619 C   0  0  0  0  0  0  0  0  0  0  0  0
    6.2612   40.6860   47.6855 N   0  0  0  0  0  0  0  0  0  0  0  0
    6.9441   41.7098   49.6357 N   0  0  0  0  0  0  0  0  0  0  0  0
    6.5846   42.3315   50.7589 C   0  0  0  0  0  0  0  0  0  0  0  0
    7.6768   42.7778   51.7051 C   0  0  0  0  0  0  0  0  0  0  0  0
    7.1813   43.1956   52.9801 O   0  0  0  0  0  0  0  0  0  0  0  0
    6.9554   44.5253   53.1975 C   0  0  0  0  0  0  0  0  0  0  0  0
    5.6064   44.8697   53.3056 C   0  0  0  0  0  0  0  0  0  0  0  0
    5.2196   46.1937   53.5282 C   0  0  0  0  0  0  0  0  0  0  0  0
    6.1833   47.1967   53.6572 C   0  0  0  0  0  0  0  0  0  0  0  0
    5.7764   48.6260   53.8583 C   0  0  0  0  0  0  0  0  0  0  0  0
    7.5350   46.8537   53.5329 C   0  0  0  0  0  0  0  0  0  0  0  0
    7.9185   45.5253   53.3101 C   0  0  0  0  0  0  0  0  0  0  0  0
    5.3217   42.6174   51.0905 N   0  0  0  0  0  0  0  0  0  0  0  0
    2.3008   42.8607   52.8520 C   0  0  0  0  0  0  0  0  0  0  0  0
    1.7724   43.6546   53.8743 C   0  0  0  0  0  0  0  0  0  0  0  0
   -0.0189   46.3444   54.3932 H   0  0  0  0  0  0  0  0  0  0  0  0
    0.6985   45.2408   55.6156 H   0  0  0  0  0  0  0  0  0  0  0  0
    1.6528   46.6267   54.9868 H   0  0  0  0  0  0  0  0  0  0  0  0
    1.4506   46.5749   52.1584 H   0  0  0  0  0  0  0  0  0  0  0  0
    2.3954   45.1558   50.3498 H   0  0  0  0  0  0  0  0  0  0  0  0
    2.4412   42.1219   49.9313 H   0  0  0  0  0  0  0  0  0  0  0  0
    7.0027   41.1727   47.2033 H   0  0  0  0  0  0  0  0  0  0  0  0
    6.3774   39.6958   47.8490 H   0  0  0  0  0  0  0  0  0  0  0  0
    8.3716   41.9388   51.8577 H   0  0  0  0  0  0  0  0  0  0  0  0
    8.1723   43.6461   51.2462 H   0  0  0  0  0  0  0  0  0  0  0  0
    4.8378   44.0880   53.2143 H   0  0  0  0  0  0  0  0  0  0  0  0
    4.1518   46.4473   53.6022 H   0  0  0  0  0  0  0  0  0  0  0  0
    5.1168   48.9387   53.0354 H   0  0  0  0  0  0  0  0  0  0  0  0
    5.2415   48.7239   54.8145 H   0  0  0  0  0  0  0  0  0  0  0  0
    6.6725   49.2638   53.8725 H   0  0  0  0  0  0  0  0  0  0  0  0
    8.3042   47.6362   53.6112 H   0  0  0  0  0  0  0  0  0  0  0  0
    8.9851   45.2705   53.2236 H   0  0  0  0  0  0  0  0  0  0  0  0
    2.5491   41.8100   53.0628 H   0  0  0  0  0  0  0  0  0  0  0  0
    1.6137   43.2251   54.8745 H   0  0  0  0  0  0  0  0  0  0  0  0
  1  2  1  0
  2  3  2  0
  3  4  1  0
  4  5  2  0
  5  6  1  0
  6  7  1  0
  7  8  2  0
  8  9  1  0
  9 10  1  0
  9 11  2  0
 11 12  1  0
 12 13  1  0
 13 14  1  0
 14 15  1  0
 15 16  2  0
 16 17  1  0
 17 18  2  0
 18 19  1  0
 18 20  1  0
 20 21  2  0
 12 22  2  0
  5 23  1  0
 23 24  2  0
 24  2  1  0
 22  7  1  0
 21 15  1  0
  1 25  1  0
  1 26  1  0
  1 27  1  0
  3 28  1  0
  4 29  1  0
  6 30  1  0
 10 31  1  0
 10 32  1  0
 13 33  1  0
 13 34  1  0
 16 35  1  0
 17 36  1  0
 19 37  1  0
 19 38  1  0
 19 39  1  0
 20 40  1  0
 21 41  1  0
 23 42  1  0
 24 43  1  0
M  END
>  <meeko>  (85) 
{"is_sidechain": false}

>  <CID>  (85) 
Z91647328

>  <pose_index>  (85) 
3

>  <docking_score>  (85) 
-9.155

>  <num_viable_poses>  (85) 
6

>  <rmsd_pairwise_std>  (85) 
0.32315120093797606

>  <rmsd_to_best_std>  (85) 
0.13833869041584354

>  <MWT>  (85) 
321.3839999999997

>  <TPSA>  (85) 
85.95

>  <logP>  (85) 
3.3932400000000023

>  <HBD>  (85) 
2

>  <HBA>  (85) 
6

>  <SMILES>  (85) 
[H]c1c([H])c(C([H])([H])[H])c([H])c([H])c1OC([H])([H])c1nc(N([H])[H])nc(N([H])c2c([H])c([H])c(C([H])([H])[H])c([H])c2[H])n1

$$$$
Z91661383_pose1
     RDKit          3D

 44 46  0  0  0  0  0  0  0  0999 V2000
   10.2380   47.5360   55.0810 C   0  0  0  0  0  0  0  0  0  0  0  0
    9.3530   47.0100   53.9900 C   0  0  0  0  0  0  0  0  0  0  0  0
    9.8630   46.7800   52.7100 C   0  0  0  0  0  0  0  0  0  0  0  0
    9.0320   46.3150   51.6830 C   0  0  0  0  0  0  0  0  0  0  0  0
    7.6730   46.0740   51.9010 C   0  0  0  0  0  0  0  0  0  0  0  0
    6.7910   45.6120   50.9170 N   0  0  0  0  0  0  0  0  0  0  0  0
    6.0270   44.4580   50.7610 C   0  0  0  0  0  0  0  0  0  0  0  0
    6.6420   43.4600   50.1330 N   0  0  0  0  0  0  0  0  0  0  0  0
    5.9310   42.3590   49.9520 C   0  0  0  0  0  0  0  0  0  0  0  0
    6.5450   41.3040   49.3090 N   0  0  0  0  0  0  0  0  0  0  0  0
    4.6910   42.1750   50.3680 N   0  0  0  0  0  0  0  0  0  0  0  0
    4.1490   43.2240   50.9880 C   0  0  0  0  0  0  0  0  0  0  0  0
    2.7110   43.1100   51.4360 C   0  0  0  0  0  0  0  0  0  0  0  0
    2.6670   42.6700   52.8080 O   0  0  0  0  0  0  0  0  0  0  0  0
    1.6760   43.3030   53.5130 C   0  0  0  0  0  0  0  0  0  0  0  0
    0.3860   42.7560   53.4890 C   0  0  0  0  0  0  0  0  0  0  0  0
   -0.6540   43.3750   54.1840 C   0  0  0  0  0  0  0  0  0  0  0  0
   -0.4120   44.5490   54.8900 C   0  0  0  0  0  0  0  0  0  0  0  0
    0.8660   45.1140   54.8900 C   0  0  0  0  0  0  0  0  0  0  0  0
    1.9220   44.5060   54.1900 C   0  0  0  0  0  0  0  0  0  0  0  0
    3.2450   45.1970   54.2310 C   0  0  0  0  0  0  0  0  0  0  0  0
    4.3520   44.4560   54.5280 N   0  0  0  0  0  0  0  0  0  0  0  0
    3.3540   46.3930   53.9810 O   0  0  0  0  0  0  0  0  0  0  0  0
    4.7790   44.3790   51.2100 N   0  0  0  0  0  0  0  0  0  0  0  0
    7.1690   46.3280   53.1860 C   0  0  0  0  0  0  0  0  0  0  0  0
    7.9930   46.7920   54.2180 C   0  0  0  0  0  0  0  0  0  0  0  0
    9.8059   47.2792   56.0594 H   0  0  0  0  0  0  0  0  0  0  0  0
   11.2374   47.0852   54.9918 H   0  0  0  0  0  0  0  0  0  0  0  0
   10.3196   48.6293   54.9918 H   0  0  0  0  0  0  0  0  0  0  0  0
   10.9279   46.9660   52.5067 H   0  0  0  0  0  0  0  0  0  0  0  0
    9.4577   46.1359   50.6847 H   0  0  0  0  0  0  0  0  0  0  0  0
    6.5880   46.2480   50.1600 H   0  0  0  0  0  0  0  0  0  0  0  0
    5.8700   40.7500   48.8020 H   0  0  0  0  0  0  0  0  0  0  0  0
    7.3610   41.6170   48.8020 H   0  0  0  0  0  0  0  0  0  0  0  0
    2.2216   44.0914   51.3501 H   0  0  0  0  0  0  0  0  0  0  0  0
    2.1865   42.3810   50.8009 H   0  0  0  0  0  0  0  0  0  0  0  0
    0.1923   41.8348   52.9199 H   0  0  0  0  0  0  0  0  0  0  0  0
   -1.6624   42.9357   54.1736 H   0  0  0  0  0  0  0  0  0  0  0  0
   -1.2270   45.0327   55.4484 H   0  0  0  0  0  0  0  0  0  0  0  0
    1.0477   46.0463   55.4448 H   0  0  0  0  0  0  0  0  0  0  0  0
    4.3090   43.4440   54.5560 H   0  0  0  0  0  0  0  0  0  0  0  0
    5.2510   44.9020   54.4180 H   0  0  0  0  0  0  0  0  0  0  0  0
    6.1009   46.1584   53.3869 H   0  0  0  0  0  0  0  0  0  0  0  0
    7.5669   46.9858   55.2134 H   0  0  0  0  0  0  0  0  0  0  0  0
  1  2  1  0
  2  3  2  0
  3  4  1  0
  4  5  2  0
  5  6  1  0
  6  7  1  0
  7  8  2  0
  8  9  1  0
  9 10  1  0
  9 11  2  0
 11 12  1  0
 12 13  1  0
 13 14  1  0
 14 15  1  0
 15 16  2  0
 16 17  1  0
 17 18  2  0
 18 19  1  0
 19 20  2  0
 20 21  1  0
 21 22  1  0
 21 23  2  0
 12 24  2  0
  5 25  1  0
 25 26  2  0
 26  2  1  0
 24  7  1  0
 20 15  1  0
  1 27  1  0
  1 28  1  0
  1 29  1  0
  3 30  1  0
  4 31  1  0
  6 32  1  0
 10 33  1  0
 10 34  1  0
 13 35  1  0
 13 36  1  0
 16 37  1  0
 17 38  1  0
 18 39  1  0
 19 40  1  0
 22 41  1  0
 22 42  1  0
 25 43  1  0
 26 44  1  0
M  END
>  <meeko>  (86) 
{"is_sidechain": false}

>  <CID>  (86) 
Z91661383

>  <pose_index>  (86) 
1

>  <docking_score>  (86) 
-9.134

>  <num_viable_poses>  (86) 
6

>  <rmsd_pairwise_std>  (86) 
0.2401437390812721

>  <rmsd_to_best_std>  (86) 
0.17355763051029927

>  <MWT>  (86) 
350.3819999999997

>  <TPSA>  (86) 
129.04000000000002

>  <logP>  (86) 
2.18372

>  <HBD>  (86) 
3

>  <HBA>  (86) 
7

>  <SMILES>  (86) 
[H]c1c([H])c([H])c(C(=O)N([H])[H])c(OC([H])([H])c2nc(N([H])[H])nc(N([H])c3c([H])c([H])c(C([H])([H])[H])c([H])c3[H])n2)c1[H]

$$$$
Z94803042_pose1
     RDKit          3D

 42 45  0  0  0  0  0  0  0  0999 V2000
   -1.9650   44.4160   54.7140 N   0  0  0  0  0  0  0  0  0  0  0  0
   -0.8500   43.7900   54.2260 C   0  0  0  0  0  0  0  0  0  0  0  0
   -0.8940   42.6170   53.8820 O   0  0  0  0  0  0  0  0  0  0  0  0
    0.4100   44.5790   54.1770 C   0  0  0  0  0  0  0  0  0  0  0  0
    1.2490   44.5660   55.2920 C   0  0  0  0  0  0  0  0  0  0  0  0
    2.4440   45.2970   55.2900 C   0  0  0  0  0  0  0  0  0  0  0  0
    2.8360   46.0440   54.1750 C   0  0  0  0  0  0  0  0  0  0  0  0
    4.0070   46.8070   54.1170 N   0  0  0  0  0  0  0  0  0  0  0  0
    5.2830   46.5810   53.6070 C   0  0  0  0  0  0  0  0  0  0  0  0
    5.4930   45.7880   52.5560 N   0  0  0  0  0  0  0  0  0  0  0  0
    6.7630   45.6260   52.1250 C   0  0  0  0  0  0  0  0  0  0  0  0
    6.8720   44.7590   50.9410 C   0  0  0  0  0  0  0  0  0  0  0  0
    7.9060   44.9280   50.0030 C   0  0  0  0  0  0  0  0  0  0  0  0
    7.9990   44.1030   48.8800 C   0  0  0  0  0  0  0  0  0  0  0  0
    7.0540   43.1000   48.6720 C   0  0  0  0  0  0  0  0  0  0  0  0
    6.0130   42.9270   49.5820 C   0  0  0  0  0  0  0  0  0  0  0  0
    5.9210   43.7530   50.7040 C   0  0  0  0  0  0  0  0  0  0  0  0
    7.8600   46.2270   52.7540 C   0  0  0  0  0  0  0  0  0  0  0  0
    9.2240   46.0700   52.3880 C   0  0  0  0  0  0  0  0  0  0  0  0
   10.2310   46.7240   53.0910 C   0  0  0  0  0  0  0  0  0  0  0  0
    9.8930   47.5350   54.1650 C   0  0  0  0  0  0  0  0  0  0  0  0
    8.5510   47.6800   54.5280 C   0  0  0  0  0  0  0  0  0  0  0  0
    7.5280   47.0350   53.8440 C   0  0  0  0  0  0  0  0  0  0  0  0
    6.2680   47.2130   54.2610 N   0  0  0  0  0  0  0  0  0  0  0  0
    1.9860   46.0360   53.0560 C   0  0  0  0  0  0  0  0  0  0  0  0
    0.7870   45.3120   53.0490 C   0  0  0  0  0  0  0  0  0  0  0  0
   -1.9020   45.2510   55.2780 H   0  0  0  0  0  0  0  0  0  0  0  0
   -2.7680   43.8170   54.8640 H   0  0  0  0  0  0  0  0  0  0  0  0
    0.9701   43.9777   56.1786 H   0  0  0  0  0  0  0  0  0  0  0  0
    3.0863   45.2830   56.1829 H   0  0  0  0  0  0  0  0  0  0  0  0
    3.9610   47.7520   54.4650 H   0  0  0  0  0  0  0  0  0  0  0  0
    8.6523   45.7215   50.1560 H   0  0  0  0  0  0  0  0  0  0  0  0
    8.8181   44.2448   48.1596 H   0  0  0  0  0  0  0  0  0  0  0  0
    7.1298   42.4459   47.7908 H   0  0  0  0  0  0  0  0  0  0  0  0
    5.2633   42.1393   49.4164 H   0  0  0  0  0  0  0  0  0  0  0  0
    5.0914   43.6138   51.4128 H   0  0  0  0  0  0  0  0  0  0  0  0
    9.4872   45.4232   51.5381 H   0  0  0  0  0  0  0  0  0  0  0  0
   11.2840   46.5994   52.7984 H   0  0  0  0  0  0  0  0  0  0  0  0
   10.6776   48.0614   54.7282 H   0  0  0  0  0  0  0  0  0  0  0  0
    8.2968   48.3250   55.3820 H   0  0  0  0  0  0  0  0  0  0  0  0
    2.2694   46.6128   52.1632 H   0  0  0  0  0  0  0  0  0  0  0  0
    0.1434   45.3205   52.1570 H   0  0  0  0  0  0  0  0  0  0  0  0
  1  2  1  0
  2  3  2  0
  2  4  1  0
  4  5  2  0
  5  6  1  0
  6  7  2  0
  7  8  1  0
  8  9  1  0
  9 10  2  0
 10 11  1  0
 11 12  1  0
 12 13  2  0
 13 14  1  0
 14 15  2  0
 15 16  1  0
 16 17  2  0
 11 18  2  0
 18 19  1  0
 19 20  2  0
 20 21  1  0
 21 22  2  0
 22 23  1  0
 23 24  2  0
  7 25  1  0
 25 26  2  0
 26  4  1  0
 24  9  1  0
 17 12  1  0
 23 18  1  0
  1 27  1  0
  1 28  1  0
  5 29  1  0
  6 30  1  0
  8 31  1  0
 13 32  1  0
 14 33  1  0
 15 34  1  0
 16 35  1  0
 17 36  1  0
 19 37  1  0
 20 38  1  0
 21 39  1  0
 22 40  1  0
 25 41  1  0
 26 42  1  0
M  END
>  <meeko>  (87) 
{"is_sidechain": false}

>  <CID>  (87) 
Z94803042

>  <pose_index>  (87) 
1

>  <docking_score>  (87) 
-10.201

>  <num_viable_poses>  (87) 
7

>  <rmsd_pairwise_std>  (87) 
0.392597434932032

>  <rmsd_to_best_std>  (87) 
0.4738025706336032

>  <MWT>  (87) 
340.38599999999974

>  <TPSA>  (87) 
80.9

>  <logP>  (87) 
4.139300000000002

>  <HBD>  (87) 
2

>  <HBA>  (87) 
4

>  <SMILES>  (87) 
[H]c1c([H])c([H])c(-c2nc(N([H])c3c([H])c([H])c(C(=O)N([H])[H])c([H])c3[H])nc3c([H])c([H])c([H])c([H])c23)c([H])c1[H]

$$$$
Z990898380_pose1
     RDKit          3D

 45 47  0  0  0  0  0  0  0  0999 V2000
    5.8070   45.2820   55.2430 O   0  0  0  0  0  0  0  0  0  0  0  0
    5.3020   46.1870   54.5840 C   0  0  0  0  0  0  0  0  0  0  0  0
    3.8270   46.5240   54.6220 C   0  0  0  0  0  0  0  0  0  0  0  0
    3.2050   46.5280   53.2310 C   0  0  0  0  0  0  0  0  0  0  0  0
    2.9730   45.1780   52.7360 N   0  0  0  0  0  0  0  0  0  0  0  0
    3.8900   44.5010   51.9880 C   0  0  0  0  0  0  0  0  0  0  0  0
    4.9220   45.0700   51.4520 N   0  0  0  0  0  0  0  0  0  0  0  0
    5.8110   44.2860   50.7000 C   0  0  0  0  0  0  0  0  0  0  0  0
    6.9270   44.8950   50.1190 C   0  0  0  0  0  0  0  0  0  0  0  0
    7.8350   44.1460   49.3640 C   0  0  0  0  0  0  0  0  0  0  0  0
    7.6360   42.7780   49.1840 C   0  0  0  0  0  0  0  0  0  0  0  0
    6.5270   42.1550   49.7560 C   0  0  0  0  0  0  0  0  0  0  0  0
    5.6280   42.9160   50.5080 C   0  0  0  0  0  0  0  0  0  0  0  0
    4.4430   42.3070   51.1290 C   0  0  0  0  0  0  0  0  0  0  0  0
    4.1870   41.1140   51.0130 O   0  0  0  0  0  0  0  0  0  0  0  0
    3.6470   43.1630   51.8470 N   0  0  0  0  0  0  0  0  0  0  0  0
    6.0170   46.9970   53.7240 N   0  0  0  0  0  0  0  0  0  0  0  0
    7.4260   46.7550   53.4420 C   0  0  0  0  0  0  0  0  0  0  0  0
    7.8700   47.4850   52.1720 C   0  0  0  0  0  0  0  0  0  0  0  0
    9.3210   47.1620   51.8070 C   0  0  0  0  0  0  0  0  0  0  0  0
   10.1920   46.8090   53.0140 C   0  0  0  0  0  0  0  0  0  0  0  0
    9.7290   47.5270   54.2730 C   0  0  0  0  0  0  0  0  0  0  0  0
    8.2900   47.1620   54.6470 C   0  0  0  0  0  0  0  0  0  0  0  0
    3.3081   45.7770   55.2406 H   0  0  0  0  0  0  0  0  0  0  0  0
    3.7207   47.5342   55.0440 H   0  0  0  0  0  0  0  0  0  0  0  0
    2.2440   47.0616   53.2727 H   0  0  0  0  0  0  0  0  0  0  0  0
    3.9060   47.0267   52.5455 H   0  0  0  0  0  0  0  0  0  0  0  0
    2.4180   44.6270   53.3870 H   0  0  0  0  0  0  0  0  0  0  0  0
    7.0925   45.9737   50.2570 H   0  0  0  0  0  0  0  0  0  0  0  0
    8.7086   44.6375   48.9109 H   0  0  0  0  0  0  0  0  0  0  0  0
    8.3528   42.1906   48.5915 H   0  0  0  0  0  0  0  0  0  0  0  0
    6.3618   41.0764   49.6167 H   0  0  0  0  0  0  0  0  0  0  0  0
    2.8200   42.7580   52.2510 H   0  0  0  0  0  0  0  0  0  0  0  0
    5.4930   47.5530   53.0600 H   0  0  0  0  0  0  0  0  0  0  0  0
    7.5624   45.6776   53.2669 H   0  0  0  0  0  0  0  0  0  0  0  0
    7.2177   47.1807   51.3402 H   0  0  0  0  0  0  0  0  0  0  0  0
    7.7973   48.5669   52.3570 H   0  0  0  0  0  0  0  0  0  0  0  0
    9.3234   46.3073   51.1145 H   0  0  0  0  0  0  0  0  0  0  0  0
    9.7492   48.0684   51.3542 H   0  0  0  0  0  0  0  0  0  0  0  0
   10.1419   45.7234   53.1842 H   0  0  0  0  0  0  0  0  0  0  0  0
   11.2224   47.1276   52.7975 H   0  0  0  0  0  0  0  0  0  0  0  0
   10.3932   47.2490   55.1046 H   0  0  0  0  0  0  0  0  0  0  0  0
    9.7648   48.6091   54.0788 H   0  0  0  0  0  0  0  0  0  0  0  0
    8.3173   46.3209   55.3554 H   0  0  0  0  0  0  0  0  0  0  0  0
    7.8318   48.0616   55.0838 H   0  0  0  0  0  0  0  0  0  0  0  0
  1  2  2  0
  2  3  1  0
  3  4  1  0
  4  5  1  0
  5  6  1  0
  6  7  2  0
  7  8  1  0
  8  9  2  0
  9 10  1  0
 10 11  2  0
 11 12  1  0
 12 13  2  0
 13 14  1  0
 14 15  2  0
 14 16  1  0
  2 17  1  0
 17 18  1  0
 18 19  1  0
 19 20  1  0
 20 21  1  0
 21 22  1  0
 22 23  1  0
 16  6  1  0
 23 18  1  0
 13  8  1  0
  3 24  1  0
  3 25  1  0
  4 26  1  0
  4 27  1  0
  5 28  1  0
  9 29  1  0
 10 30  1  0
 11 31  1  0
 12 32  1  0
 16 33  1  0
 17 34  1  0
 18 35  1  0
 19 36  1  0
 19 37  1  0
 20 38  1  0
 20 39  1  0
 21 40  1  0
 21 41  1  0
 22 42  1  0
 22 43  1  0
 23 44  1  0
 23 45  1  0
M  END
>  <meeko>  (88) 
{"is_sidechain": false}

>  <CID>  (88) 
Z990898380

>  <pose_index>  (88) 
1

>  <docking_score>  (88) 
-9.616

>  <num_viable_poses>  (88) 
8

>  <rmsd_pairwise_std>  (88) 
0.36223777584302375

>  <rmsd_to_best_std>  (88) 
0.21423699396056636

>  <MWT>  (88) 
314.38899999999967

>  <TPSA>  (88) 
86.88

>  <logP>  (88) 
2.1739999999999995

>  <HBD>  (88) 
3

>  <HBA>  (88) 
4

>  <SMILES>  (88) 
[H]c1c([H])c([H])c2c(=O)n([H])c(N([H])C([H])([H])C([H])([H])C(=O)N([H])C3([H])C([H])([H])C([H])([H])C([H])([H])C([H])([H])C3([H])[H])nc2c1[H]

$$$$
