46927371_pose3
     RDKit          3D

 58 62  0  0  0  0  0  0  0  0999 V2000
    3.2110   43.4243   52.7379 C   0  0  0  0  0  0  0  0  0  0  0  0
    2.4599   44.5409   53.4143 C   0  0  0  0  0  0  0  0  0  0  0  0
    1.0538   44.5641   53.3037 C   0  0  0  0  0  0  0  0  0  0  0  0
    0.2659   45.5585   53.8990 C   0  0  0  0  0  0  0  0  0  0  0  0
   -1.1247   45.5115   53.7501 N   0  0  0  0  0  0  0  0  0  0  0  0
   -1.9939   46.2195   54.7140 C   0  0  0  0  0  0  0  0  0  0  0  0
   -2.6756   45.2229   55.6618 C   0  0  0  0  0  0  0  0  0  0  0  0
   -3.5128   44.2669   54.9864 O   0  0  0  0  0  0  0  0  0  0  0  0
   -3.1330   44.0505   53.6177 C   0  0  0  0  0  0  0  0  0  0  0  0
   -1.6184   44.1599   53.3804 C   0  0  0  0  0  0  0  0  0  0  0  0
    0.9396   46.5433   54.6245 C   0  0  0  0  0  0  0  0  0  0  0  0
    2.3379   46.5338   54.7439 C   0  0  0  0  0  0  0  0  0  0  0  0
    3.1274   45.5566   54.1308 C   0  0  0  0  0  0  0  0  0  0  0  0
    4.5220   45.5172   54.2634 N   0  0  0  0  0  0  0  0  0  0  0  0
    5.5870   46.0756   53.5551 C   0  0  0  0  0  0  0  0  0  0  0  0
    6.1988   45.3894   52.5670 N   0  0  0  0  0  0  0  0  0  0  0  0
    7.1941   45.9711   51.8725 C   0  0  0  0  0  0  0  0  0  0  0  0
    7.8368   45.3283   50.8372 O   0  0  0  0  0  0  0  0  0  0  0  0
    8.1617   43.9498   51.0891 C   0  0  0  0  0  0  0  0  0  0  0  0
    7.3970   43.0187   50.1266 C   0  0  0  0  0  0  0  0  0  0  0  0
    8.2083   42.6837   48.8792 C   0  0  0  0  0  0  0  0  0  0  0  0
    9.5201   41.9760   49.2281 C   0  0  0  0  0  0  0  0  0  0  0  0
   10.1121   42.4165   50.5672 C   0  0  0  0  0  0  0  0  0  0  0  0
    9.6881   43.8341   50.9239 C   0  0  0  0  0  0  0  0  0  0  0  0
    7.5461   47.2507   52.2085 C   0  0  0  0  0  0  0  0  0  0  0  0
    8.4632   48.1523   51.7547 N   0  0  0  0  0  0  0  0  0  0  0  0
    8.3274   49.2846   52.5124 C   0  0  0  0  0  0  0  0  0  0  0  0
    7.3763   49.1566   53.4131 N   0  0  0  0  0  0  0  0  0  0  0  0
    6.8810   47.8907   53.2287 C   0  0  0  0  0  0  0  0  0  0  0  0
    5.8842   47.3292   53.9254 N   0  0  0  0  0  0  0  0  0  0  0  0
    4.2790   43.4940   52.9921 H   0  0  0  0  0  0  0  0  0  0  0  0
    2.8153   42.4565   53.0796 H   0  0  0  0  0  0  0  0  0  0  0  0
    3.0874   43.5067   51.6479 H   0  0  0  0  0  0  0  0  0  0  0  0
    0.5561   43.7703   52.7274 H   0  0  0  0  0  0  0  0  0  0  0  0
   -1.3842   46.9198   55.3038 H   0  0  0  0  0  0  0  0  0  0  0  0
   -2.7695   46.7655   54.1568 H   0  0  0  0  0  0  0  0  0  0  0  0
   -1.8952   44.6754   56.2107 H   0  0  0  0  0  0  0  0  0  0  0  0
   -3.3258   45.8062   56.3304 H   0  0  0  0  0  0  0  0  0  0  0  0
   -3.4609   43.0436   53.3199 H   0  0  0  0  0  0  0  0  0  0  0  0
   -3.6135   44.8381   53.0188 H   0  0  0  0  0  0  0  0  0  0  0  0
   -1.1016   43.4067   53.9932 H   0  0  0  0  0  0  0  0  0  0  0  0
   -1.4147   43.9890   52.3130 H   0  0  0  0  0  0  0  0  0  0  0  0
    0.3625   47.3427   55.1124 H   0  0  0  0  0  0  0  0  0  0  0  0
    2.8276   47.3194   55.3380 H   0  0  0  0  0  0  0  0  0  0  0  0
    4.8951   44.8386   54.9106 H   0  0  0  0  0  0  0  0  0  0  0  0
    7.8610   43.6382   52.1002 H   0  0  0  0  0  0  0  0  0  0  0  0
    7.1575   42.0838   50.6545 H   0  0  0  0  0  0  0  0  0  0  0  0
    6.4852   43.5429   49.8045 H   0  0  0  0  0  0  0  0  0  0  0  0
    7.6101   42.0261   48.2313 H   0  0  0  0  0  0  0  0  0  0  0  0
    8.4534   43.6260   48.3672 H   0  0  0  0  0  0  0  0  0  0  0  0
    9.3313   40.8931   49.2700 H   0  0  0  0  0  0  0  0  0  0  0  0
   10.2491   42.2419   48.4484 H   0  0  0  0  0  0  0  0  0  0  0  0
    9.7655   41.7307   51.3544 H   0  0  0  0  0  0  0  0  0  0  0  0
   11.2088   42.3942   50.4843 H   0  0  0  0  0  0  0  0  0  0  0  0
   10.1714   44.1232   51.8688 H   0  0  0  0  0  0  0  0  0  0  0  0
    9.9947   44.4994   50.1033 H   0  0  0  0  0  0  0  0  0  0  0  0
    9.1187   48.0062   50.9985 H   0  0  0  0  0  0  0  0  0  0  0  0
    8.9384   50.1903   52.3841 H   0  0  0  0  0  0  0  0  0  0  0  0
  1  2  1  0
  2  3  2  0
  3  4  1  0
  4  5  1  0
  5  6  1  0
  6  7  1  0
  7  8  1  0
  8  9  1  0
  9 10  1  0
  4 11  2  0
 11 12  1  0
 12 13  2  0
 13 14  1  0
 14 15  1  0
 15 16  2  0
 16 17  1  0
 17 18  1  0
 18 19  1  0
 19 20  1  0
 20 21  1  0
 21 22  1  0
 22 23  1  0
 23 24  1  0
 17 25  2  0
 25 26  1  0
 26 27  1  0
 27 28  2  0
 28 29  1  0
 29 30  2  0
 13  2  1  0
 30 15  1  0
 10  5  1  0
 24 19  1  0
 29 25  1  0
  1 31  1  0
  1 32  1  0
  1 33  1  0
  3 34  1  0
  6 35  1  0
  6 36  1  0
  7 37  1  0
  7 38  1  0
  9 39  1  0
  9 40  1  0
 10 41  1  0
 10 42  1  0
 11 43  1  0
 12 44  1  0
 14 45  1  0
 19 46  1  0
 20 47  1  0
 20 48  1  0
 21 49  1  0
 21 50  1  0
 22 51  1  0
 22 52  1  0
 23 53  1  0
 23 54  1  0
 24 55  1  0
 24 56  1  0
 26 57  1  0
 27 58  1  0
M  END
>  <meeko>  (1) 
{"is_sidechain": false}

>  <CID>  (1) 
46927371

>  <pose_index>  (1) 
3

>  <docking_score>  (1) 
-9.453

>  <rmsd_to_best_selected>  (1) 
0.0

>  <MWT>  (1) 
408.50599999999963

>  <TPSA>  (1) 
88.19000000000001

>  <logP>  (1) 
3.953020000000002

>  <HBD>  (1) 
2

>  <HBA>  (1) 
7

>  <SMILES>  (1) 
[H]c1c([H])c(N2C([H])([H])C([H])([H])OC([H])([H])C2([H])[H])c([H])c(C([H])([H])[H])c1N([H])c1nc(OC2([H])C([H])([H])C([H])([H])C([H])([H])C([H])([H])C2([H])[H])c2c(n1)nc([H])n2[H]

$$$$
46927371_pose5
     RDKit          3D

 58 62  0  0  0  0  0  0  0  0999 V2000
    2.4451   45.0811   51.0671 C   0  0  0  0  0  0  0  0  0  0  0  0
    1.9628   45.7194   52.3420 C   0  0  0  0  0  0  0  0  0  0  0  0
    0.7356   45.2842   52.8864 C   0  0  0  0  0  0  0  0  0  0  0  0
    0.2038   45.8135   54.0700 C   0  0  0  0  0  0  0  0  0  0  0  0
   -1.0168   45.3259   54.5519 N   0  0  0  0  0  0  0  0  0  0  0  0
   -1.0982   44.7614   55.9156 C   0  0  0  0  0  0  0  0  0  0  0  0
   -1.2077   43.2323   55.8623 C   0  0  0  0  0  0  0  0  0  0  0  0
   -2.3706   42.7616   55.1578 O   0  0  0  0  0  0  0  0  0  0  0  0
   -2.8705   43.7063   54.1969 C   0  0  0  0  0  0  0  0  0  0  0  0
   -1.7636   44.5433   53.5342 C   0  0  0  0  0  0  0  0  0  0  0  0
    0.9528   46.8057   54.7056 C   0  0  0  0  0  0  0  0  0  0  0  0
    2.1745   47.2510   54.1773 C   0  0  0  0  0  0  0  0  0  0  0  0
    2.6944   46.7404   52.9848 C   0  0  0  0  0  0  0  0  0  0  0  0
    3.9263   47.1535   52.4584 N   0  0  0  0  0  0  0  0  0  0  0  0
    5.2602   46.8678   52.7550 C   0  0  0  0  0  0  0  0  0  0  0  0
    5.8281   45.7114   52.3511 N   0  0  0  0  0  0  0  0  0  0  0  0
    7.1284   45.4834   52.6137 C   0  0  0  0  0  0  0  0  0  0  0  0
    7.7665   44.3332   52.2048 O   0  0  0  0  0  0  0  0  0  0  0  0
    8.2187   44.3431   50.8390 C   0  0  0  0  0  0  0  0  0  0  0  0
    9.6185   43.7071   50.7174 C   0  0  0  0  0  0  0  0  0  0  0  0
    9.5490   42.2206   50.3816 C   0  0  0  0  0  0  0  0  0  0  0  0
    8.8344   41.9705   49.0518 C   0  0  0  0  0  0  0  0  0  0  0  0
    7.7338   42.9883   48.7520 C   0  0  0  0  0  0  0  0  0  0  0  0
    7.1562   43.5766   50.0318 C   0  0  0  0  0  0  0  0  0  0  0  0
    7.8235   46.4487   53.2901 C   0  0  0  0  0  0  0  0  0  0  0  0
    9.1091   46.5914   53.7224 N   0  0  0  0  0  0  0  0  0  0  0  0
    9.1933   47.8055   54.3492 C   0  0  0  0  0  0  0  0  0  0  0  0
    8.0407   48.4420   54.3359 N   0  0  0  0  0  0  0  0  0  0  0  0
    7.1810   47.6035   53.6736 C   0  0  0  0  0  0  0  0  0  0  0  0
    5.8890   47.8492   53.4153 N   0  0  0  0  0  0  0  0  0  0  0  0
    1.7129   45.2624   50.2664 H   0  0  0  0  0  0  0  0  0  0  0  0
    3.4145   45.5165   50.7829 H   0  0  0  0  0  0  0  0  0  0  0  0
    2.5604   43.9979   51.2201 H   0  0  0  0  0  0  0  0  0  0  0  0
    0.1741   44.4979   52.3606 H   0  0  0  0  0  0  0  0  0  0  0  0
   -0.1937   45.0396   56.4764 H   0  0  0  0  0  0  0  0  0  0  0  0
   -1.9933   45.1635   56.4126 H   0  0  0  0  0  0  0  0  0  0  0  0
   -0.3128   42.8370   55.3593 H   0  0  0  0  0  0  0  0  0  0  0  0
   -1.2948   42.8790   56.9004 H   0  0  0  0  0  0  0  0  0  0  0  0
   -3.4083   43.1544   53.4119 H   0  0  0  0  0  0  0  0  0  0  0  0
   -3.5272   44.4040   54.7372 H   0  0  0  0  0  0  0  0  0  0  0  0
   -1.0663   43.8714   53.0122 H   0  0  0  0  0  0  0  0  0  0  0  0
   -2.2268   45.2412   52.8212 H   0  0  0  0  0  0  0  0  0  0  0  0
    0.5775   47.2477   55.6403 H   0  0  0  0  0  0  0  0  0  0  0  0
    2.7394   48.0248   54.7178 H   0  0  0  0  0  0  0  0  0  0  0  0
    3.9070   47.9340   51.8189 H   0  0  0  0  0  0  0  0  0  0  0  0
    8.3271   45.3674   50.4529 H   0  0  0  0  0  0  0  0  0  0  0  0
   10.1747   44.2244   49.9217 H   0  0  0  0  0  0  0  0  0  0  0  0
   10.1220   43.8103   51.6900 H   0  0  0  0  0  0  0  0  0  0  0  0
   10.5722   41.8222   50.3162 H   0  0  0  0  0  0  0  0  0  0  0  0
    8.9783   41.7173   51.1759 H   0  0  0  0  0  0  0  0  0  0  0  0
    9.5786   42.0134   48.2428 H   0  0  0  0  0  0  0  0  0  0  0  0
    8.3532   40.9839   49.1228 H   0  0  0  0  0  0  0  0  0  0  0  0
    8.1549   43.8015   48.1427 H   0  0  0  0  0  0  0  0  0  0  0  0
    6.9250   42.4740   48.2121 H   0  0  0  0  0  0  0  0  0  0  0  0
    6.3412   44.2674   49.7700 H   0  0  0  0  0  0  0  0  0  0  0  0
    6.7874   42.7473   50.6532 H   0  0  0  0  0  0  0  0  0  0  0  0
    9.8570   45.9222   53.5992 H   0  0  0  0  0  0  0  0  0  0  0  0
   10.1116   48.2010   54.8078 H   0  0  0  0  0  0  0  0  0  0  0  0
  1  2  1  0
  2  3  2  0
  3  4  1  0
  4  5  1  0
  5  6  1  0
  6  7  1  0
  7  8  1  0
  8  9  1  0
  9 10  1  0
  4 11  2  0
 11 12  1  0
 12 13  2  0
 13 14  1  0
 14 15  1  0
 15 16  2  0
 16 17  1  0
 17 18  1  0
 18 19  1  0
 19 20  1  0
 20 21  1  0
 21 22  1  0
 22 23  1  0
 23 24  1  0
 17 25  2  0
 25 26  1  0
 26 27  1  0
 27 28  2  0
 28 29  1  0
 29 30  2  0
 13  2  1  0
 30 15  1  0
 10  5  1  0
 24 19  1  0
 29 25  1  0
  1 31  1  0
  1 32  1  0
  1 33  1  0
  3 34  1  0
  6 35  1  0
  6 36  1  0
  7 37  1  0
  7 38  1  0
  9 39  1  0
  9 40  1  0
 10 41  1  0
 10 42  1  0
 11 43  1  0
 12 44  1  0
 14 45  1  0
 19 46  1  0
 20 47  1  0
 20 48  1  0
 21 49  1  0
 21 50  1  0
 22 51  1  0
 22 52  1  0
 23 53  1  0
 23 54  1  0
 24 55  1  0
 24 56  1  0
 26 57  1  0
 27 58  1  0
M  END
>  <meeko>  (2) 
{"is_sidechain": false}

>  <CID>  (2) 
46927371

>  <pose_index>  (2) 
5

>  <docking_score>  (2) 
-9.184

>  <rmsd_to_best_selected>  (2) 
1.621395659662693

>  <MWT>  (2) 
408.50599999999963

>  <TPSA>  (2) 
88.19000000000001

>  <logP>  (2) 
3.953020000000002

>  <HBD>  (2) 
2

>  <HBA>  (2) 
7

>  <SMILES>  (2) 
[H]c1c([H])c(N2C([H])([H])C([H])([H])OC([H])([H])C2([H])[H])c([H])c(C([H])([H])[H])c1N([H])c1nc(OC2([H])C([H])([H])C([H])([H])C([H])([H])C([H])([H])C2([H])[H])c2c(n1)nc([H])n2[H]

$$$$
46927371_pose8
     RDKit          3D

 58 62  0  0  0  0  0  0  0  0999 V2000
    2.8646   44.5972   51.9554 C   0  0  0  0  0  0  0  0  0  0  0  0
    2.3611   44.8827   53.3460 C   0  0  0  0  0  0  0  0  0  0  0  0
    0.9830   45.1315   53.5200 C   0  0  0  0  0  0  0  0  0  0  0  0
    0.4185   45.4040   54.7739 C   0  0  0  0  0  0  0  0  0  0  0  0
   -0.9588   45.6345   54.8694 N   0  0  0  0  0  0  0  0  0  0  0  0
   -1.8793   44.5074   55.1261 C   0  0  0  0  0  0  0  0  0  0  0  0
   -2.6495   44.1366   53.8514 C   0  0  0  0  0  0  0  0  0  0  0  0
   -3.4563   45.2095   53.3340 O   0  0  0  0  0  0  0  0  0  0  0  0
   -2.9846   46.5106   53.7204 C   0  0  0  0  0  0  0  0  0  0  0  0
   -1.4538   46.5901   53.8441 C   0  0  0  0  0  0  0  0  0  0  0  0
    1.2881   45.4152   55.8652 C   0  0  0  0  0  0  0  0  0  0  0  0
    2.6609   45.1701   55.7086 C   0  0  0  0  0  0  0  0  0  0  0  0
    3.2297   44.9220   54.4557 C   0  0  0  0  0  0  0  0  0  0  0  0
    4.5942   44.6471   54.2857 N   0  0  0  0  0  0  0  0  0  0  0  0
    5.6768   45.3589   53.7692 C   0  0  0  0  0  0  0  0  0  0  0  0
    6.5605   44.7713   52.9348 N   0  0  0  0  0  0  0  0  0  0  0  0
    7.5705   45.4963   52.4187 C   0  0  0  0  0  0  0  0  0  0  0  0
    8.4852   44.9546   51.5436 O   0  0  0  0  0  0  0  0  0  0  0  0
    8.1350   43.6608   51.0231 C   0  0  0  0  0  0  0  0  0  0  0  0
    7.5926   43.7738   49.5835 C   0  0  0  0  0  0  0  0  0  0  0  0
    8.6852   43.5801   48.5372 C   0  0  0  0  0  0  0  0  0  0  0  0
    9.3454   42.2041   48.6519 C   0  0  0  0  0  0  0  0  0  0  0  0
    9.3998   41.6736   50.0850 C   0  0  0  0  0  0  0  0  0  0  0  0
    9.4144   42.8089   51.0988 C   0  0  0  0  0  0  0  0  0  0  0  0
    7.6559   46.8153   52.7707 C   0  0  0  0  0  0  0  0  0  0  0  0
    8.4962   47.8455   52.4662 N   0  0  0  0  0  0  0  0  0  0  0  0
    8.0515   48.9461   53.1471 C   0  0  0  0  0  0  0  0  0  0  0  0
    6.9780   48.6777   53.8604 N   0  0  0  0  0  0  0  0  0  0  0  0
    6.7225   47.3506   53.6284 C   0  0  0  0  0  0  0  0  0  0  0  0
    5.7076   46.6449   54.1467 N   0  0  0  0  0  0  0  0  0  0  0  0
    2.0113   44.5155   51.2660 H   0  0  0  0  0  0  0  0  0  0  0  0
    3.5229   45.4155   51.6286 H   0  0  0  0  0  0  0  0  0  0  0  0
    3.4272   43.6519   51.9560 H   0  0  0  0  0  0  0  0  0  0  0  0
    0.3265   45.1109   52.6377 H   0  0  0  0  0  0  0  0  0  0  0  0
   -1.2987   43.6363   55.4637 H   0  0  0  0  0  0  0  0  0  0  0  0
   -2.6002   44.8082   55.9006 H   0  0  0  0  0  0  0  0  0  0  0  0
   -1.9232   43.8438   53.0789 H   0  0  0  0  0  0  0  0  0  0  0  0
   -3.3334   43.3162   54.1145 H   0  0  0  0  0  0  0  0  0  0  0  0
   -3.3122   47.2395   52.9645 H   0  0  0  0  0  0  0  0  0  0  0  0
   -3.4036   46.7275   54.7140 H   0  0  0  0  0  0  0  0  0  0  0  0
   -0.9999   46.3445   52.8727 H   0  0  0  0  0  0  0  0  0  0  0  0
   -1.1762   47.6101   54.1483 H   0  0  0  0  0  0  0  0  0  0  0  0
    0.8890   45.6206   56.8695 H   0  0  0  0  0  0  0  0  0  0  0  0
    3.3085   45.1732   56.5977 H   0  0  0  0  0  0  0  0  0  0  0  0
    4.8821   43.6883   54.4189 H   0  0  0  0  0  0  0  0  0  0  0  0
    7.3279   43.1927   51.6057 H   0  0  0  0  0  0  0  0  0  0  0  0
    6.8201   43.0048   49.4350 H   0  0  0  0  0  0  0  0  0  0  0  0
    7.1808   44.7860   49.4571 H   0  0  0  0  0  0  0  0  0  0  0  0
    8.2408   43.6792   47.5359 H   0  0  0  0  0  0  0  0  0  0  0  0
    9.4580   44.3448   48.7046 H   0  0  0  0  0  0  0  0  0  0  0  0
    8.7752   41.4916   48.0379 H   0  0  0  0  0  0  0  0  0  0  0  0
   10.3841   42.3128   48.3066 H   0  0  0  0  0  0  0  0  0  0  0  0
    8.5169   41.0432   50.2667 H   0  0  0  0  0  0  0  0  0  0  0  0
   10.3262   41.0925   50.2035 H   0  0  0  0  0  0  0  0  0  0  0  0
    9.4988   42.3825   52.1093 H   0  0  0  0  0  0  0  0  0  0  0  0
   10.2717   43.4593   50.8706 H   0  0  0  0  0  0  0  0  0  0  0  0
    9.2968   47.7988   51.8511 H   0  0  0  0  0  0  0  0  0  0  0  0
    8.5323   49.9345   53.1037 H   0  0  0  0  0  0  0  0  0  0  0  0
  1  2  1  0
  2  3  2  0
  3  4  1  0
  4  5  1  0
  5  6  1  0
  6  7  1  0
  7  8  1  0
  8  9  1  0
  9 10  1  0
  4 11  2  0
 11 12  1  0
 12 13  2  0
 13 14  1  0
 14 15  1  0
 15 16  2  0
 16 17  1  0
 17 18  1  0
 18 19  1  0
 19 20  1  0
 20 21  1  0
 21 22  1  0
 22 23  1  0
 23 24  1  0
 17 25  2  0
 25 26  1  0
 26 27  1  0
 27 28  2  0
 28 29  1  0
 29 30  2  0
 13  2  1  0
 30 15  1  0
 10  5  1  0
 24 19  1  0
 29 25  1  0
  1 31  1  0
  1 32  1  0
  1 33  1  0
  3 34  1  0
  6 35  1  0
  6 36  1  0
  7 37  1  0
  7 38  1  0
  9 39  1  0
  9 40  1  0
 10 41  1  0
 10 42  1  0
 11 43  1  0
 12 44  1  0
 14 45  1  0
 19 46  1  0
 20 47  1  0
 20 48  1  0
 21 49  1  0
 21 50  1  0
 22 51  1  0
 22 52  1  0
 23 53  1  0
 23 54  1  0
 24 55  1  0
 24 56  1  0
 26 57  1  0
 27 58  1  0
M  END
>  <meeko>  (3) 
{"is_sidechain": false}

>  <CID>  (3) 
46927371

>  <pose_index>  (3) 
8

>  <docking_score>  (3) 
-8.828

>  <rmsd_to_best_selected>  (3) 
1.4129126679814716

>  <MWT>  (3) 
408.50599999999963

>  <TPSA>  (3) 
88.19000000000001

>  <logP>  (3) 
3.953020000000002

>  <HBD>  (3) 
2

>  <HBA>  (3) 
7

>  <SMILES>  (3) 
[H]c1c([H])c(N2C([H])([H])C([H])([H])OC([H])([H])C2([H])[H])c([H])c(C([H])([H])[H])c1N([H])c1nc(OC2([H])C([H])([H])C([H])([H])C([H])([H])C([H])([H])C2([H])[H])c2c(n1)nc([H])n2[H]

$$$$
46927371_pose9
     RDKit          3D

 58 62  0  0  0  0  0  0  0  0999 V2000
    2.9138   44.0195   51.6607 C   0  0  0  0  0  0  0  0  0  0  0  0
    2.2436   44.9898   52.5972 C   0  0  0  0  0  0  0  0  0  0  0  0
    1.1027   44.5564   53.3045 C   0  0  0  0  0  0  0  0  0  0  0  0
    0.4123   45.3835   54.2028 C   0  0  0  0  0  0  0  0  0  0  0  0
   -0.7094   44.8807   54.8725 N   0  0  0  0  0  0  0  0  0  0  0  0
   -1.6086   43.9253   54.1921 C   0  0  0  0  0  0  0  0  0  0  0  0
   -2.9202   44.6114   53.7867 C   0  0  0  0  0  0  0  0  0  0  0  0
   -3.6596   45.1424   54.9007 O   0  0  0  0  0  0  0  0  0  0  0  0
   -2.8341   45.4413   56.0382 C   0  0  0  0  0  0  0  0  0  0  0  0
   -1.4235   45.9211   55.6573 C   0  0  0  0  0  0  0  0  0  0  0  0
    0.9091   46.6760   54.3750 C   0  0  0  0  0  0  0  0  0  0  0  0
    2.0425   47.1220   53.6779 C   0  0  0  0  0  0  0  0  0  0  0  0
    2.7189   46.3070   52.7651 C   0  0  0  0  0  0  0  0  0  0  0  0
    3.8688   46.7278   52.0829 N   0  0  0  0  0  0  0  0  0  0  0  0
    5.2374   46.6712   52.3491 C   0  0  0  0  0  0  0  0  0  0  0  0
    6.0687   45.9588   51.5583 N   0  0  0  0  0  0  0  0  0  0  0  0
    7.3906   45.9596   51.8140 C   0  0  0  0  0  0  0  0  0  0  0  0
    8.2875   45.2714   51.0260 O   0  0  0  0  0  0  0  0  0  0  0  0
    7.9933   43.8753   50.8499 C   0  0  0  0  0  0  0  0  0  0  0  0
    7.6991   43.5556   49.3707 C   0  0  0  0  0  0  0  0  0  0  0  0
    8.9440   43.0930   48.6208 C   0  0  0  0  0  0  0  0  0  0  0  0
    9.5391   41.8236   49.2356 C   0  0  0  0  0  0  0  0  0  0  0  0
    9.3411   41.7305   50.7480 C   0  0  0  0  0  0  0  0  0  0  0  0
    9.2188   43.1092   51.3800 C   0  0  0  0  0  0  0  0  0  0  0  0
    7.8356   46.6924   52.8810 C   0  0  0  0  0  0  0  0  0  0  0  0
    9.0541   46.9430   53.4405 N   0  0  0  0  0  0  0  0  0  0  0  0
    8.8438   47.7680   54.5134 C   0  0  0  0  0  0  0  0  0  0  0  0
    7.5693   48.0581   54.6631 N   0  0  0  0  0  0  0  0  0  0  0  0
    6.9323   47.3932   53.6461 C   0  0  0  0  0  0  0  0  0  0  0  0
    5.6149   47.4081   53.4020 N   0  0  0  0  0  0  0  0  0  0  0  0
    3.9987   44.2012   51.6593 H   0  0  0  0  0  0  0  0  0  0  0  0
    2.7148   42.9905   51.9948 H   0  0  0  0  0  0  0  0  0  0  0  0
    2.5175   44.1580   50.6440 H   0  0  0  0  0  0  0  0  0  0  0  0
    0.7403   43.5300   53.1455 H   0  0  0  0  0  0  0  0  0  0  0  0
   -1.1098   43.5383   53.2914 H   0  0  0  0  0  0  0  0  0  0  0  0
   -1.8389   43.1015   54.8838 H   0  0  0  0  0  0  0  0  0  0  0  0
   -2.6829   45.4380   53.1008 H   0  0  0  0  0  0  0  0  0  0  0  0
   -3.5530   43.8454   53.3146 H   0  0  0  0  0  0  0  0  0  0  0  0
   -3.3240   46.2305   56.6273 H   0  0  0  0  0  0  0  0  0  0  0  0
   -2.7176   44.5089   56.6100 H   0  0  0  0  0  0  0  0  0  0  0  0
   -1.5044   46.8369   55.0534 H   0  0  0  0  0  0  0  0  0  0  0  0
   -0.8567   46.1205   56.5787 H   0  0  0  0  0  0  0  0  0  0  0  0
    0.4018   47.3596   55.0717 H   0  0  0  0  0  0  0  0  0  0  0  0
    2.4098   48.1437   53.8549 H   0  0  0  0  0  0  0  0  0  0  0  0
    3.7268   47.3343   51.2890 H   0  0  0  0  0  0  0  0  0  0  0  0
    7.0885   43.5781   51.4003 H   0  0  0  0  0  0  0  0  0  0  0  0
    6.9419   42.7590   49.3246 H   0  0  0  0  0  0  0  0  0  0  0  0
    7.3405   44.4784   48.8914 H   0  0  0  0  0  0  0  0  0  0  0  0
    8.6739   42.8890   47.5742 H   0  0  0  0  0  0  0  0  0  0  0  0
    9.6986   43.8907   48.6860 H   0  0  0  0  0  0  0  0  0  0  0  0
    9.0595   40.9515   48.7669 H   0  0  0  0  0  0  0  0  0  0  0  0
   10.6232   41.8513   49.0514 H   0  0  0  0  0  0  0  0  0  0  0  0
    8.4233   41.1602   50.9539 H   0  0  0  0  0  0  0  0  0  0  0  0
   10.2191   41.2289   51.1809 H   0  0  0  0  0  0  0  0  0  0  0  0
    9.1225   42.9939   52.4697 H   0  0  0  0  0  0  0  0  0  0  0  0
   10.1198   43.6848   51.1211 H   0  0  0  0  0  0  0  0  0  0  0  0
    9.9422   46.5849   53.1185 H   0  0  0  0  0  0  0  0  0  0  0  0
    9.6430   48.1423   55.1700 H   0  0  0  0  0  0  0  0  0  0  0  0
  1  2  1  0
  2  3  2  0
  3  4  1  0
  4  5  1  0
  5  6  1  0
  6  7  1  0
  7  8  1  0
  8  9  1  0
  9 10  1  0
  4 11  2  0
 11 12  1  0
 12 13  2  0
 13 14  1  0
 14 15  1  0
 15 16  2  0
 16 17  1  0
 17 18  1  0
 18 19  1  0
 19 20  1  0
 20 21  1  0
 21 22  1  0
 22 23  1  0
 23 24  1  0
 17 25  2  0
 25 26  1  0
 26 27  1  0
 27 28  2  0
 28 29  1  0
 29 30  2  0
 13  2  1  0
 30 15  1  0
 10  5  1  0
 24 19  1  0
 29 25  1  0
  1 31  1  0
  1 32  1  0
  1 33  1  0
  3 34  1  0
  6 35  1  0
  6 36  1  0
  7 37  1  0
  7 38  1  0
  9 39  1  0
  9 40  1  0
 10 41  1  0
 10 42  1  0
 11 43  1  0
 12 44  1  0
 14 45  1  0
 19 46  1  0
 20 47  1  0
 20 48  1  0
 21 49  1  0
 21 50  1  0
 22 51  1  0
 22 52  1  0
 23 53  1  0
 23 54  1  0
 24 55  1  0
 24 56  1  0
 26 57  1  0
 27 58  1  0
M  END
>  <meeko>  (4) 
{"is_sidechain": false}

>  <CID>  (4) 
46927371

>  <pose_index>  (4) 
9

>  <docking_score>  (4) 
-8.734

>  <rmsd_to_best_selected>  (4) 
1.3360190312183262

>  <MWT>  (4) 
408.50599999999963

>  <TPSA>  (4) 
88.19000000000001

>  <logP>  (4) 
3.953020000000002

>  <HBD>  (4) 
2

>  <HBA>  (4) 
7

>  <SMILES>  (4) 
[H]c1c([H])c(N2C([H])([H])C([H])([H])OC([H])([H])C2([H])[H])c([H])c(C([H])([H])[H])c1N([H])c1nc(OC2([H])C([H])([H])C([H])([H])C([H])([H])C([H])([H])C2([H])[H])c2c(n1)nc([H])n2[H]

$$$$
46927371_pose10
     RDKit          3D

 58 62  0  0  0  0  0  0  0  0999 V2000
    2.4749   45.0249   51.1986 C   0  0  0  0  0  0  0  0  0  0  0  0
    2.0698   45.5484   52.5514 C   0  0  0  0  0  0  0  0  0  0  0  0
    0.8707   45.0700   53.1210 C   0  0  0  0  0  0  0  0  0  0  0  0
    0.4096   45.4935   54.3762 C   0  0  0  0  0  0  0  0  0  0  0  0
   -0.7863   44.9694   54.8799 N   0  0  0  0  0  0  0  0  0  0  0  0
   -1.3637   43.7458   54.2832 C   0  0  0  0  0  0  0  0  0  0  0  0
   -2.5887   44.0885   53.4247 C   0  0  0  0  0  0  0  0  0  0  0  0
   -3.6502   44.7206   54.1634 O   0  0  0  0  0  0  0  0  0  0  0  0
   -3.1920   45.4029   55.3413 C   0  0  0  0  0  0  0  0  0  0  0  0
   -1.7923   46.0194   55.1820 C   0  0  0  0  0  0  0  0  0  0  0  0
    1.2007   46.4227   55.0542 C   0  0  0  0  0  0  0  0  0  0  0  0
    2.3950   46.9080   54.5012 C   0  0  0  0  0  0  0  0  0  0  0  0
    2.8438   46.5048   53.2401 C   0  0  0  0  0  0  0  0  0  0  0  0
    4.0486   46.9589   52.6854 N   0  0  0  0  0  0  0  0  0  0  0  0
    5.3946   46.6564   52.8932 C   0  0  0  0  0  0  0  0  0  0  0  0
    5.9114   45.4761   52.4908 N   0  0  0  0  0  0  0  0  0  0  0  0
    7.2233   45.2310   52.6651 C   0  0  0  0  0  0  0  0  0  0  0  0
    7.8090   44.0552   52.2523 O   0  0  0  0  0  0  0  0  0  0  0  0
    7.7916   43.8355   50.8308 C   0  0  0  0  0  0  0  0  0  0  0  0
    9.1363   44.2390   50.1930 C   0  0  0  0  0  0  0  0  0  0  0  0
   10.0955   43.0592   50.0736 C   0  0  0  0  0  0  0  0  0  0  0  0
    9.5150   41.9405   49.2051 C   0  0  0  0  0  0  0  0  0  0  0  0
    7.9932   41.8264   49.2978 C   0  0  0  0  0  0  0  0  0  0  0  0
    7.4763   42.3418   50.6330 C   0  0  0  0  0  0  0  0  0  0  0  0
    7.9837   46.2055   53.2542 C   0  0  0  0  0  0  0  0  0  0  0  0
    9.2994   46.3360   53.5860 N   0  0  0  0  0  0  0  0  0  0  0  0
    9.4502   47.5687   54.1630 C   0  0  0  0  0  0  0  0  0  0  0  0
    8.3118   48.2280   54.2110 N   0  0  0  0  0  0  0  0  0  0  0  0
    7.3911   47.3845   53.6428 C   0  0  0  0  0  0  0  0  0  0  0  0
    6.0883   47.6479   53.4702 N   0  0  0  0  0  0  0  0  0  0  0  0
    3.4357   45.4727   50.9048 H   0  0  0  0  0  0  0  0  0  0  0  0
    2.5792   43.9309   51.2450 H   0  0  0  0  0  0  0  0  0  0  0  0
    1.7056   45.2888   50.4579 H   0  0  0  0  0  0  0  0  0  0  0  0
    0.2743   44.3364   52.5588 H   0  0  0  0  0  0  0  0  0  0  0  0
   -0.6053   43.2588   53.6526 H   0  0  0  0  0  0  0  0  0  0  0  0
   -1.6765   43.0705   55.0932 H   0  0  0  0  0  0  0  0  0  0  0  0
   -2.2710   44.7690   52.6210 H   0  0  0  0  0  0  0  0  0  0  0  0
   -2.9864   43.1395   53.0359 H   0  0  0  0  0  0  0  0  0  0  0  0
   -3.9034   46.2081   55.5772 H   0  0  0  0  0  0  0  0  0  0  0  0
   -3.1292   44.6561   56.1465 H   0  0  0  0  0  0  0  0  0  0  0  0
   -1.8108   46.7490   54.3590 H   0  0  0  0  0  0  0  0  0  0  0  0
   -1.5147   46.5137   56.1247 H   0  0  0  0  0  0  0  0  0  0  0  0
    0.8806   46.7820   56.0434 H   0  0  0  0  0  0  0  0  0  0  0  0
    2.9962   47.6271   55.0768 H   0  0  0  0  0  0  0  0  0  0  0  0
    3.9974   47.7836   52.1051 H   0  0  0  0  0  0  0  0  0  0  0  0
    7.0327   44.4566   50.3324 H   0  0  0  0  0  0  0  0  0  0  0  0
    8.9446   44.6426   49.1879 H   0  0  0  0  0  0  0  0  0  0  0  0
    9.6061   44.9911   50.8440 H   0  0  0  0  0  0  0  0  0  0  0  0
   11.0357   43.4089   49.6223 H   0  0  0  0  0  0  0  0  0  0  0  0
   10.2676   42.6549   51.0821 H   0  0  0  0  0  0  0  0  0  0  0  0
    9.7866   42.1362   48.1573 H   0  0  0  0  0  0  0  0  0  0  0  0
    9.9343   40.9928   49.5739 H   0  0  0  0  0  0  0  0  0  0  0  0
    7.5403   42.4163   48.4873 H   0  0  0  0  0  0  0  0  0  0  0  0
    7.7203   40.7645   49.2083 H   0  0  0  0  0  0  0  0  0  0  0  0
    6.3862   42.1999   50.6714 H   0  0  0  0  0  0  0  0  0  0  0  0
    7.9771   41.7780   51.4338 H   0  0  0  0  0  0  0  0  0  0  0  0
   10.0244   45.6481   53.4330 H   0  0  0  0  0  0  0  0  0  0  0  0
   10.4063   47.9604   54.5405 H   0  0  0  0  0  0  0  0  0  0  0  0
  1  2  1  0
  2  3  2  0
  3  4  1  0
  4  5  1  0
  5  6  1  0
  6  7  1  0
  7  8  1  0
  8  9  1  0
  9 10  1  0
  4 11  2  0
 11 12  1  0
 12 13  2  0
 13 14  1  0
 14 15  1  0
 15 16  2  0
 16 17  1  0
 17 18  1  0
 18 19  1  0
 19 20  1  0
 20 21  1  0
 21 22  1  0
 22 23  1  0
 23 24  1  0
 17 25  2  0
 25 26  1  0
 26 27  1  0
 27 28  2  0
 28 29  1  0
 29 30  2  0
 13  2  1  0
 30 15  1  0
 10  5  1  0
 24 19  1  0
 29 25  1  0
  1 31  1  0
  1 32  1  0
  1 33  1  0
  3 34  1  0
  6 35  1  0
  6 36  1  0
  7 37  1  0
  7 38  1  0
  9 39  1  0
  9 40  1  0
 10 41  1  0
 10 42  1  0
 11 43  1  0
 12 44  1  0
 14 45  1  0
 19 46  1  0
 20 47  1  0
 20 48  1  0
 21 49  1  0
 21 50  1  0
 22 51  1  0
 22 52  1  0
 23 53  1  0
 23 54  1  0
 24 55  1  0
 24 56  1  0
 26 57  1  0
 27 58  1  0
M  END
>  <meeko>  (5) 
{"is_sidechain": false}

>  <CID>  (5) 
46927371

>  <pose_index>  (5) 
10

>  <docking_score>  (5) 
-8.525

>  <rmsd_to_best_selected>  (5) 
1.5325010103757548

>  <MWT>  (5) 
408.50599999999963

>  <TPSA>  (5) 
88.19000000000001

>  <logP>  (5) 
3.953020000000002

>  <HBD>  (5) 
2

>  <HBA>  (5) 
7

>  <SMILES>  (5) 
[H]c1c([H])c(N2C([H])([H])C([H])([H])OC([H])([H])C2([H])[H])c([H])c(C([H])([H])[H])c1N([H])c1nc(OC2([H])C([H])([H])C([H])([H])C([H])([H])C([H])([H])C2([H])[H])c2c(n1)nc([H])n2[H]

$$$$
