5329552_pose1
     RDKit          3D

 45 48  0  0  0  0  0  0  0  0999 V2000
    8.3330   43.9150   49.1460 Br  0  0  0  0  0  0  0  0  0  0  0  0
    6.7360   43.1030   49.7480 C   0  0  0  0  0  0  0  0  0  0  0  0
    6.5300   41.7450   49.5300 C   0  0  0  0  0  0  0  0  0  0  0  0
    5.3510   41.1570   49.9790 C   0  0  0  0  0  0  0  0  0  0  0  0
    4.3880   41.9270   50.6410 C   0  0  0  0  0  0  0  0  0  0  0  0
    4.5750   43.2960   50.8630 C   0  0  0  0  0  0  0  0  0  0  0  0
    3.6530   44.1130   51.5260 N   0  0  0  0  0  0  0  0  0  0  0  0
    3.5830   44.6850   52.7970 C   0  0  0  0  0  0  0  0  0  0  0  0
    4.6300   45.3630   53.3160 N   0  0  0  0  0  0  0  0  0  0  0  0
    4.5270   45.9040   54.5440 C   0  0  0  0  0  0  0  0  0  0  0  0
    5.5650   46.5970   55.1250 O   0  0  0  0  0  0  0  0  0  0  0  0
    6.8570   46.3240   54.5710 C   0  0  0  0  0  0  0  0  0  0  0  0
    7.4780   47.5810   53.9280 C   0  0  0  0  0  0  0  0  0  0  0  0
    8.9170   47.8050   54.4170 C   0  0  0  0  0  0  0  0  0  0  0  0
    9.9140   46.8140   53.8160 C   0  0  0  0  0  0  0  0  0  0  0  0
    9.8440   46.7980   52.2930 C   0  0  0  0  0  0  0  0  0  0  0  0
    8.4260   46.5500   51.7890 C   0  0  0  0  0  0  0  0  0  0  0  0
    7.4320   47.5420   52.3900 C   0  0  0  0  0  0  0  0  0  0  0  0
    3.3510   45.7350   55.2220 C   0  0  0  0  0  0  0  0  0  0  0  0
    2.8750   46.1110   56.4440 N   0  0  0  0  0  0  0  0  0  0  0  0
    1.5970   45.6320   56.5470 C   0  0  0  0  0  0  0  0  0  0  0  0
    1.2350   44.9760   55.4640 N   0  0  0  0  0  0  0  0  0  0  0  0
    2.3240   45.0340   54.6330 C   0  0  0  0  0  0  0  0  0  0  0  0
    2.4070   44.4940   53.4090 N   0  0  0  0  0  0  0  0  0  0  0  0
    5.7730   43.8710   50.4080 C   0  0  0  0  0  0  0  0  0  0  0  0
    7.2893   41.1431   49.0092 H   0  0  0  0  0  0  0  0  0  0  0  0
    5.1757   40.0838   49.8130 H   0  0  0  0  0  0  0  0  0  0  0  0
    3.4642   41.4458   50.9945 H   0  0  0  0  0  0  0  0  0  0  0  0
    2.7990   44.3360   51.0320 H   0  0  0  0  0  0  0  0  0  0  0  0
    7.5210   45.9684   55.3727 H   0  0  0  0  0  0  0  0  0  0  0  0
    6.7405   45.5599   53.7884 H   0  0  0  0  0  0  0  0  0  0  0  0
    6.8603   48.4318   54.2515 H   0  0  0  0  0  0  0  0  0  0  0  0
    9.2262   48.8240   54.1411 H   0  0  0  0  0  0  0  0  0  0  0  0
    8.9209   47.6552   55.5067 H   0  0  0  0  0  0  0  0  0  0  0  0
   10.9307   47.1004   54.1232 H   0  0  0  0  0  0  0  0  0  0  0  0
    9.6606   45.8080   54.1817 H   0  0  0  0  0  0  0  0  0  0  0  0
   10.1919   47.7692   51.9112 H   0  0  0  0  0  0  0  0  0  0  0  0
   10.4814   45.9773   51.9321 H   0  0  0  0  0  0  0  0  0  0  0  0
    8.4138   46.6522   50.6938 H   0  0  0  0  0  0  0  0  0  0  0  0
    8.1259   45.5364   52.0934 H   0  0  0  0  0  0  0  0  0  0  0  0
    7.6639   48.5466   52.0066 H   0  0  0  0  0  0  0  0  0  0  0  0
    6.4230   47.2146   52.0988 H   0  0  0  0  0  0  0  0  0  0  0  0
    3.3790   46.6440   57.1400 H   0  0  0  0  0  0  0  0  0  0  0  0
    0.9518   45.7771   57.4260 H   0  0  0  0  0  0  0  0  0  0  0  0
    5.9561   44.9429   50.5738 H   0  0  0  0  0  0  0  0  0  0  0  0
  1  2  1  0
  2  3  2  0
  3  4  1  0
  4  5  2  0
  5  6  1  0
  6  7  1  0
  7  8  1  0
  8  9  2  0
  9 10  1  0
 10 11  1  0
 11 12  1  0
 12 13  1  0
 13 14  1  0
 14 15  1  0
 15 16  1  0
 16 17  1  0
 17 18  1  0
 10 19  2  0
 19 20  1  0
 20 21  1  0
 21 22  2  0
 22 23  1  0
 23 24  2  0
  6 25  2  0
 25  2  1  0
 24  8  1  0
 18 13  1  0
 23 19  1  0
  3 26  1  0
  4 27  1  0
  5 28  1  0
  7 29  1  0
 12 30  1  0
 12 31  1  0
 13 32  1  0
 14 33  1  0
 14 34  1  0
 15 35  1  0
 15 36  1  0
 16 37  1  0
 16 38  1  0
 17 39  1  0
 17 40  1  0
 18 41  1  0
 18 42  1  0
 20 43  1  0
 21 44  1  0
 25 45  1  0
M  END
>  <meeko>  (1) 
{"is_sidechain": false}

>  <CID>  (1) 
5329552

>  <pose_index>  (1) 
1

>  <docking_score>  (1) 
-9.68

>  <rmsd_to_best_selected>  (1) 
0.0

>  <MWT>  (1) 
402.29599999999976

>  <TPSA>  (1) 
75.72

>  <logP>  (1) 
4.818100000000003

>  <HBD>  (1) 
2

>  <HBA>  (1) 
5

>  <SMILES>  (1) 
[H]c1c([H])c(Br)c([H])c(N([H])c2nc(OC([H])([H])C3([H])C([H])([H])C([H])([H])C([H])([H])C([H])([H])C3([H])[H])c3c(n2)nc([H])n3[H])c1[H]

$$$$
5329552_pose6
     RDKit          3D

 45 48  0  0  0  0  0  0  0  0999 V2000
    8.6547   41.5181   51.9363 Br  0  0  0  0  0  0  0  0  0  0  0  0
    6.7705   41.5583   52.0883 C   0  0  0  0  0  0  0  0  0  0  0  0
    6.1095   40.5161   52.7279 C   0  0  0  0  0  0  0  0  0  0  0  0
    4.7223   40.5578   52.8376 C   0  0  0  0  0  0  0  0  0  0  0  0
    4.0070   41.6377   52.3066 C   0  0  0  0  0  0  0  0  0  0  0  0
    4.6546   42.6928   51.6549 C   0  0  0  0  0  0  0  0  0  0  0  0
    3.9941   43.8008   51.1142 N   0  0  0  0  0  0  0  0  0  0  0  0
    3.9782   45.1676   51.3942 C   0  0  0  0  0  0  0  0  0  0  0  0
    5.1255   45.8726   51.4947 N   0  0  0  0  0  0  0  0  0  0  0  0
    5.0733   47.1907   51.7643 C   0  0  0  0  0  0  0  0  0  0  0  0
    6.2103   47.9563   51.8861 O   0  0  0  0  0  0  0  0  0  0  0  0
    6.8980   47.8197   53.1346 C   0  0  0  0  0  0  0  0  0  0  0  0
    8.2689   47.1356   52.9590 C   0  0  0  0  0  0  0  0  0  0  0  0
    9.2101   47.4642   54.1286 C   0  0  0  0  0  0  0  0  0  0  0  0
    8.8366   46.7357   55.4198 C   0  0  0  0  0  0  0  0  0  0  0  0
    8.7262   45.2296   55.2044 C   0  0  0  0  0  0  0  0  0  0  0  0
    7.7738   44.8845   54.0636 C   0  0  0  0  0  0  0  0  0  0  0  0
    8.1492   45.6132   52.7750 C   0  0  0  0  0  0  0  0  0  0  0  0
    3.8407   47.7622   51.9310 C   0  0  0  0  0  0  0  0  0  0  0  0
    3.3862   49.0173   52.2084 N   0  0  0  0  0  0  0  0  0  0  0  0
    2.0195   48.9537   52.2474 C   0  0  0  0  0  0  0  0  0  0  0  0
    1.5824   47.7348   52.0095 N   0  0  0  0  0  0  0  0  0  0  0  0
    2.7118   46.9847   51.8126 C   0  0  0  0  0  0  0  0  0  0  0  0
    2.7462   45.6731   51.5403 N   0  0  0  0  0  0  0  0  0  0  0  0
    6.0550   42.6354   51.5593 C   0  0  0  0  0  0  0  0  0  0  0  0
    6.6756   39.6688   53.1424 H   0  0  0  0  0  0  0  0  0  0  0  0
    4.1870   39.7403   53.3427 H   0  0  0  0  0  0  0  0  0  0  0  0
    2.9115   41.6572   52.4041 H   0  0  0  0  0  0  0  0  0  0  0  0
    3.3266   43.6214   50.3753 H   0  0  0  0  0  0  0  0  0  0  0  0
    7.0512   48.8189   53.5684 H   0  0  0  0  0  0  0  0  0  0  0  0
    6.2841   47.1920   53.7973 H   0  0  0  0  0  0  0  0  0  0  0  0
    8.7030   47.5426   52.0339 H   0  0  0  0  0  0  0  0  0  0  0  0
   10.2334   47.1754   53.8467 H   0  0  0  0  0  0  0  0  0  0  0  0
    9.1269   48.5435   54.3242 H   0  0  0  0  0  0  0  0  0  0  0  0
    9.6102   46.9321   56.1767 H   0  0  0  0  0  0  0  0  0  0  0  0
    7.8566   47.1078   55.7530 H   0  0  0  0  0  0  0  0  0  0  0  0
    9.7235   44.8304   54.9677 H   0  0  0  0  0  0  0  0  0  0  0  0
    8.3278   44.7823   56.1270 H   0  0  0  0  0  0  0  0  0  0  0  0
    7.8111   43.8000   53.8837 H   0  0  0  0  0  0  0  0  0  0  0  0
    6.7613   45.2012   54.3543 H   0  0  0  0  0  0  0  0  0  0  0  0
    9.1162   45.2256   52.4219 H   0  0  0  0  0  0  0  0  0  0  0  0
    7.3441   45.4318   52.0477 H   0  0  0  0  0  0  0  0  0  0  0  0
    3.9577   49.8381   52.3582 H   0  0  0  0  0  0  0  0  0  0  0  0
    1.3666   49.8149   52.4523 H   0  0  0  0  0  0  0  0  0  0  0  0
    6.5970   43.4518   51.0597 H   0  0  0  0  0  0  0  0  0  0  0  0
  1  2  1  0
  2  3  2  0
  3  4  1  0
  4  5  2  0
  5  6  1  0
  6  7  1  0
  7  8  1  0
  8  9  2  0
  9 10  1  0
 10 11  1  0
 11 12  1  0
 12 13  1  0
 13 14  1  0
 14 15  1  0
 15 16  1  0
 16 17  1  0
 17 18  1  0
 10 19  2  0
 19 20  1  0
 20 21  1  0
 21 22  2  0
 22 23  1  0
 23 24  2  0
  6 25  2  0
 25  2  1  0
 24  8  1  0
 18 13  1  0
 23 19  1  0
  3 26  1  0
  4 27  1  0
  5 28  1  0
  7 29  1  0
 12 30  1  0
 12 31  1  0
 13 32  1  0
 14 33  1  0
 14 34  1  0
 15 35  1  0
 15 36  1  0
 16 37  1  0
 16 38  1  0
 17 39  1  0
 17 40  1  0
 18 41  1  0
 18 42  1  0
 20 43  1  0
 21 44  1  0
 25 45  1  0
M  END
>  <meeko>  (2) 
{"is_sidechain": false}

>  <CID>  (2) 
5329552

>  <pose_index>  (2) 
6

>  <docking_score>  (2) 
-8.752

>  <rmsd_to_best_selected>  (2) 
0.9808259373486957

>  <MWT>  (2) 
402.29599999999976

>  <TPSA>  (2) 
75.72

>  <logP>  (2) 
4.818100000000003

>  <HBD>  (2) 
2

>  <HBA>  (2) 
5

>  <SMILES>  (2) 
[H]c1c([H])c(Br)c([H])c(N([H])c2nc(OC([H])([H])C3([H])C([H])([H])C([H])([H])C([H])([H])C([H])([H])C3([H])[H])c3c(n2)nc([H])n3[H])c1[H]

$$$$
5329552_pose7
     RDKit          3D

 45 48  0  0  0  0  0  0  0  0999 V2000
    8.3058   41.0885   53.3282 Br  0  0  0  0  0  0  0  0  0  0  0  0
    6.4579   41.2939   52.9842 C   0  0  0  0  0  0  0  0  0  0  0  0
    5.7387   40.2387   52.4349 C   0  0  0  0  0  0  0  0  0  0  0  0
    4.3786   40.4000   52.1884 C   0  0  0  0  0  0  0  0  0  0  0  0
    3.7476   41.6112   52.4915 C   0  0  0  0  0  0  0  0  0  0  0  0
    4.4553   42.6861   53.0394 C   0  0  0  0  0  0  0  0  0  0  0  0
    3.8777   43.9154   53.3717 N   0  0  0  0  0  0  0  0  0  0  0  0
    3.9165   45.1998   52.8254 C   0  0  0  0  0  0  0  0  0  0  0  0
    4.9766   46.0113   53.0261 N   0  0  0  0  0  0  0  0  0  0  0  0
    4.9822   47.2431   52.4832 C   0  0  0  0  0  0  0  0  0  0  0  0
    6.0321   48.1148   52.6615 O   0  0  0  0  0  0  0  0  0  0  0  0
    6.7472   47.9532   53.8922 C   0  0  0  0  0  0  0  0  0  0  0  0
    8.2676   47.8408   53.6579 C   0  0  0  0  0  0  0  0  0  0  0  0
    8.9609   47.1271   54.8287 C   0  0  0  0  0  0  0  0  0  0  0  0
    8.6968   45.6232   54.8533 C   0  0  0  0  0  0  0  0  0  0  0  0
    9.0464   44.9672   53.5211 C   0  0  0  0  0  0  0  0  0  0  0  0
    8.3440   45.6466   52.3496 C   0  0  0  0  0  0  0  0  0  0  0  0
    8.6106   47.1505   52.3271 C   0  0  0  0  0  0  0  0  0  0  0  0
    3.8931   47.6226   51.7463 C   0  0  0  0  0  0  0  0  0  0  0  0
    3.5309   48.7474   51.0655 N   0  0  0  0  0  0  0  0  0  0  0  0
    2.2975   48.5106   50.5204 C   0  0  0  0  0  0  0  0  0  0  0  0
    1.8580   47.3056   50.8151 N   0  0  0  0  0  0  0  0  0  0  0  0
    2.8471   46.7450   51.5811 C   0  0  0  0  0  0  0  0  0  0  0  0
    2.8288   45.5137   52.1103 N   0  0  0  0  0  0  0  0  0  0  0  0
    5.8264   42.5031   53.2864 C   0  0  0  0  0  0  0  0  0  0  0  0
    6.2385   39.2878   52.1980 H   0  0  0  0  0  0  0  0  0  0  0  0
    3.7981   39.5728   51.7539 H   0  0  0  0  0  0  0  0  0  0  0  0
    2.6709   41.7207   52.2946 H   0  0  0  0  0  0  0  0  0  0  0  0
    3.3296   43.9509   54.2211 H   0  0  0  0  0  0  0  0  0  0  0  0
    6.5491   48.8225   54.5364 H   0  0  0  0  0  0  0  0  0  0  0  0
    6.4040   47.0230   54.3686 H   0  0  0  0  0  0  0  0  0  0  0  0
    8.6492   48.8708   53.5984 H   0  0  0  0  0  0  0  0  0  0  0  0
   10.0455   47.2909   54.7460 H   0  0  0  0  0  0  0  0  0  0  0  0
    8.5510   47.5477   55.7588 H   0  0  0  0  0  0  0  0  0  0  0  0
    9.3074   45.1669   55.6464 H   0  0  0  0  0  0  0  0  0  0  0  0
    7.6245   45.4663   55.0419 H   0  0  0  0  0  0  0  0  0  0  0  0
   10.1340   45.0303   53.3684 H   0  0  0  0  0  0  0  0  0  0  0  0
    8.7108   43.9203   53.5586 H   0  0  0  0  0  0  0  0  0  0  0  0
    8.7092   45.2056   51.4104 H   0  0  0  0  0  0  0  0  0  0  0  0
    7.2608   45.4918   52.4624 H   0  0  0  0  0  0  0  0  0  0  0  0
    9.6768   47.3144   52.1116 H   0  0  0  0  0  0  0  0  0  0  0  0
    7.9636   47.5882   51.5526 H   0  0  0  0  0  0  0  0  0  0  0  0
    4.0749   49.5952   50.9826 H   0  0  0  0  0  0  0  0  0  0  0  0
    1.7419   49.2384   49.9107 H   0  0  0  0  0  0  0  0  0  0  0  0
    6.4119   43.3248   53.7246 H   0  0  0  0  0  0  0  0  0  0  0  0
  1  2  1  0
  2  3  2  0
  3  4  1  0
  4  5  2  0
  5  6  1  0
  6  7  1  0
  7  8  1  0
  8  9  2  0
  9 10  1  0
 10 11  1  0
 11 12  1  0
 12 13  1  0
 13 14  1  0
 14 15  1  0
 15 16  1  0
 16 17  1  0
 17 18  1  0
 10 19  2  0
 19 20  1  0
 20 21  1  0
 21 22  2  0
 22 23  1  0
 23 24  2  0
  6 25  2  0
 25  2  1  0
 24  8  1  0
 18 13  1  0
 23 19  1  0
  3 26  1  0
  4 27  1  0
  5 28  1  0
  7 29  1  0
 12 30  1  0
 12 31  1  0
 13 32  1  0
 14 33  1  0
 14 34  1  0
 15 35  1  0
 15 36  1  0
 16 37  1  0
 16 38  1  0
 17 39  1  0
 17 40  1  0
 18 41  1  0
 18 42  1  0
 20 43  1  0
 21 44  1  0
 25 45  1  0
M  END
>  <meeko>  (3) 
{"is_sidechain": false}

>  <CID>  (3) 
5329552

>  <pose_index>  (3) 
7

>  <docking_score>  (3) 
-8.519

>  <rmsd_to_best_selected>  (3) 
1.3811512107552255

>  <MWT>  (3) 
402.29599999999976

>  <TPSA>  (3) 
75.72

>  <logP>  (3) 
4.818100000000003

>  <HBD>  (3) 
2

>  <HBA>  (3) 
5

>  <SMILES>  (3) 
[H]c1c([H])c(Br)c([H])c(N([H])c2nc(OC([H])([H])C3([H])C([H])([H])C([H])([H])C([H])([H])C([H])([H])C3([H])[H])c3c(n2)nc([H])n3[H])c1[H]

$$$$
5329552_pose8
     RDKit          3D

 45 48  0  0  0  0  0  0  0  0999 V2000
    7.7178   41.3591   55.0274 Br  0  0  0  0  0  0  0  0  0  0  0  0
    6.1275   41.4458   54.0084 C   0  0  0  0  0  0  0  0  0  0  0  0
    5.1527   40.4671   54.1697 C   0  0  0  0  0  0  0  0  0  0  0  0
    3.9855   40.5431   53.4164 C   0  0  0  0  0  0  0  0  0  0  0  0
    3.7997   41.5909   52.5087 C   0  0  0  0  0  0  0  0  0  0  0  0
    4.7722   42.5807   52.3275 C   0  0  0  0  0  0  0  0  0  0  0  0
    4.6386   43.6564   51.4434 N   0  0  0  0  0  0  0  0  0  0  0  0
    4.4108   45.0255   51.5881 C   0  0  0  0  0  0  0  0  0  0  0  0
    5.3531   45.8376   52.1151 N   0  0  0  0  0  0  0  0  0  0  0  0
    5.1013   47.1540   52.2387 C   0  0  0  0  0  0  0  0  0  0  0  0
    6.0208   48.0257   52.7752 O   0  0  0  0  0  0  0  0  0  0  0  0
    6.5903   47.6081   54.0218 C   0  0  0  0  0  0  0  0  0  0  0  0
    8.1292   47.7010   54.0044 C   0  0  0  0  0  0  0  0  0  0  0  0
    8.7643   46.6137   54.8854 C   0  0  0  0  0  0  0  0  0  0  0  0
    8.6863   45.2201   54.2630 C   0  0  0  0  0  0  0  0  0  0  0  0
    9.2675   45.1988   52.8536 C   0  0  0  0  0  0  0  0  0  0  0  0
    8.6288   46.2548   51.9561 C   0  0  0  0  0  0  0  0  0  0  0  0
    8.7092   47.6476   52.5798 C   0  0  0  0  0  0  0  0  0  0  0  0
    3.8814   47.6138   51.8228 C   0  0  0  0  0  0  0  0  0  0  0  0
    3.2670   48.8308   51.7878 N   0  0  0  0  0  0  0  0  0  0  0  0
    2.0241   48.6424   51.2465 C   0  0  0  0  0  0  0  0  0  0  0  0
    1.8148   47.3804   50.9360 N   0  0  0  0  0  0  0  0  0  0  0  0
    2.9690   46.7316   51.2935 C   0  0  0  0  0  0  0  0  0  0  0  0
    3.2049   45.4194   51.1582 N   0  0  0  0  0  0  0  0  0  0  0  0
    5.9416   42.4914   53.1010 C   0  0  0  0  0  0  0  0  0  0  0  0
    5.3025   39.6437   54.8835 H   0  0  0  0  0  0  0  0  0  0  0  0
    3.2058   39.7763   53.5352 H   0  0  0  0  0  0  0  0  0  0  0  0
    2.8688   41.6380   51.9246 H   0  0  0  0  0  0  0  0  0  0  0  0
    4.6592   43.4425   50.4548 H   0  0  0  0  0  0  0  0  0  0  0  0
    6.2031   48.2528   54.8245 H   0  0  0  0  0  0  0  0  0  0  0  0
    6.3118   46.5575   54.1915 H   0  0  0  0  0  0  0  0  0  0  0  0
    8.3844   48.6858   54.4229 H   0  0  0  0  0  0  0  0  0  0  0  0
    9.8226   46.8669   55.0465 H   0  0  0  0  0  0  0  0  0  0  0  0
    8.2009   46.5844   55.8297 H   0  0  0  0  0  0  0  0  0  0  0  0
    9.2512   44.5165   54.8922 H   0  0  0  0  0  0  0  0  0  0  0  0
    7.6269   44.9308   54.2014 H   0  0  0  0  0  0  0  0  0  0  0  0
   10.3492   45.3899   52.9125 H   0  0  0  0  0  0  0  0  0  0  0  0
    9.0614   44.2109   52.4158 H   0  0  0  0  0  0  0  0  0  0  0  0
    9.1533   46.2660   50.9893 H   0  0  0  0  0  0  0  0  0  0  0  0
    7.5674   45.9978   51.8247 H   0  0  0  0  0  0  0  0  0  0  0  0
    9.7649   47.9540   52.6191 H   0  0  0  0  0  0  0  0  0  0  0  0
    8.1091   48.3244   51.9539 H   0  0  0  0  0  0  0  0  0  0  0  0
    3.6616   49.7064   52.1049 H   0  0  0  0  0  0  0  0  0  0  0  0
    1.2902   49.4467   51.0901 H   0  0  0  0  0  0  0  0  0  0  0  0
    6.7234   43.2571   52.9902 H   0  0  0  0  0  0  0  0  0  0  0  0
  1  2  1  0
  2  3  2  0
  3  4  1  0
  4  5  2  0
  5  6  1  0
  6  7  1  0
  7  8  1  0
  8  9  2  0
  9 10  1  0
 10 11  1  0
 11 12  1  0
 12 13  1  0
 13 14  1  0
 14 15  1  0
 15 16  1  0
 16 17  1  0
 17 18  1  0
 10 19  2  0
 19 20  1  0
 20 21  1  0
 21 22  2  0
 22 23  1  0
 23 24  2  0
  6 25  2  0
 25  2  1  0
 24  8  1  0
 18 13  1  0
 23 19  1  0
  3 26  1  0
  4 27  1  0
  5 28  1  0
  7 29  1  0
 12 30  1  0
 12 31  1  0
 13 32  1  0
 14 33  1  0
 14 34  1  0
 15 35  1  0
 15 36  1  0
 16 37  1  0
 16 38  1  0
 17 39  1  0
 17 40  1  0
 18 41  1  0
 18 42  1  0
 20 43  1  0
 21 44  1  0
 25 45  1  0
M  END
>  <meeko>  (4) 
{"is_sidechain": false}

>  <CID>  (4) 
5329552

>  <pose_index>  (4) 
8

>  <docking_score>  (4) 
-8.396

>  <rmsd_to_best_selected>  (4) 
1.3702861869311609

>  <MWT>  (4) 
402.29599999999976

>  <TPSA>  (4) 
75.72

>  <logP>  (4) 
4.818100000000003

>  <HBD>  (4) 
2

>  <HBA>  (4) 
5

>  <SMILES>  (4) 
[H]c1c([H])c(Br)c([H])c(N([H])c2nc(OC([H])([H])C3([H])C([H])([H])C([H])([H])C([H])([H])C([H])([H])C3([H])[H])c3c(n2)nc([H])n3[H])c1[H]

$$$$
5329552_pose9
     RDKit          3D

 45 48  0  0  0  0  0  0  0  0999 V2000
    7.7086   41.6146   54.3710 Br  0  0  0  0  0  0  0  0  0  0  0  0
    5.9472   41.5093   53.6909 C   0  0  0  0  0  0  0  0  0  0  0  0
    5.4495   40.2876   53.2545 C   0  0  0  0  0  0  0  0  0  0  0  0
    4.1518   40.2218   52.7588 C   0  0  0  0  0  0  0  0  0  0  0  0
    3.3609   41.3739   52.7011 C   0  0  0  0  0  0  0  0  0  0  0  0
    3.8460   42.6147   53.1297 C   0  0  0  0  0  0  0  0  0  0  0  0
    3.0997   43.7973   53.1055 N   0  0  0  0  0  0  0  0  0  0  0  0
    3.3233   45.0911   52.6326 C   0  0  0  0  0  0  0  0  0  0  0  0
    4.4507   45.7643   52.9501 N   0  0  0  0  0  0  0  0  0  0  0  0
    4.6345   47.0108   52.4760 C   0  0  0  0  0  0  0  0  0  0  0  0
    5.7601   47.7454   52.7745 O   0  0  0  0  0  0  0  0  0  0  0  0
    6.7350   47.0596   53.5674 C   0  0  0  0  0  0  0  0  0  0  0  0
    7.8317   46.4187   52.6948 C   0  0  0  0  0  0  0  0  0  0  0  0
    8.8938   47.4513   52.2850 C   0  0  0  0  0  0  0  0  0  0  0  0
    9.8207   47.8441   53.4340 C   0  0  0  0  0  0  0  0  0  0  0  0
   10.4598   46.6224   54.0864 C   0  0  0  0  0  0  0  0  0  0  0  0
    9.4183   45.5980   54.5239 C   0  0  0  0  0  0  0  0  0  0  0  0
    8.4938   45.2062   53.3731 C   0  0  0  0  0  0  0  0  0  0  0  0
    3.6555   47.5463   51.6851 C   0  0  0  0  0  0  0  0  0  0  0  0
    3.4735   48.7345   51.0405 N   0  0  0  0  0  0  0  0  0  0  0  0
    2.2671   48.6666   50.3981 C   0  0  0  0  0  0  0  0  0  0  0  0
    1.6747   47.5085   50.5961 N   0  0  0  0  0  0  0  0  0  0  0  0
    2.5332   46.8039   51.3996 C   0  0  0  0  0  0  0  0  0  0  0  0
    2.3365   45.5605   51.8592 N   0  0  0  0  0  0  0  0  0  0  0  0
    5.1566   42.6604   53.6330 C   0  0  0  0  0  0  0  0  0  0  0  0
    6.0743   39.3834   53.3005 H   0  0  0  0  0  0  0  0  0  0  0  0
    3.7460   39.2604   52.4110 H   0  0  0  0  0  0  0  0  0  0  0  0
    2.3351   41.3032   52.3102 H   0  0  0  0  0  0  0  0  0  0  0  0
    2.1973   43.7797   53.5626 H   0  0  0  0  0  0  0  0  0  0  0  0
    7.2026   47.7778   54.2570 H   0  0  0  0  0  0  0  0  0  0  0  0
    6.2243   46.2573   54.1202 H   0  0  0  0  0  0  0  0  0  0  0  0
    7.3299   46.0511   51.7875 H   0  0  0  0  0  0  0  0  0  0  0  0
    9.5025   47.0249   51.4740 H   0  0  0  0  0  0  0  0  0  0  0  0
    8.3625   48.3602   51.9661 H   0  0  0  0  0  0  0  0  0  0  0  0
   10.6156   48.4965   53.0437 H   0  0  0  0  0  0  0  0  0  0  0  0
    9.2213   48.3649   54.1952 H   0  0  0  0  0  0  0  0  0  0  0  0
   11.1413   46.1497   53.3638 H   0  0  0  0  0  0  0  0  0  0  0  0
   11.0017   46.9599   54.9822 H   0  0  0  0  0  0  0  0  0  0  0  0
    9.9348   44.6979   54.8886 H   0  0  0  0  0  0  0  0  0  0  0  0
    8.8054   46.0496   55.3178 H   0  0  0  0  0  0  0  0  0  0  0  0
    9.0824   44.6614   52.6204 H   0  0  0  0  0  0  0  0  0  0  0  0
    7.6896   44.5846   53.7939 H   0  0  0  0  0  0  0  0  0  0  0  0
    4.1154   49.5165   51.0425 H   0  0  0  0  0  0  0  0  0  0  0  0
    1.8444   49.4804   49.7906 H   0  0  0  0  0  0  0  0  0  0  0  0
    5.5672   43.6174   53.9873 H   0  0  0  0  0  0  0  0  0  0  0  0
  1  2  1  0
  2  3  2  0
  3  4  1  0
  4  5  2  0
  5  6  1  0
  6  7  1  0
  7  8  1  0
  8  9  2  0
  9 10  1  0
 10 11  1  0
 11 12  1  0
 12 13  1  0
 13 14  1  0
 14 15  1  0
 15 16  1  0
 16 17  1  0
 17 18  1  0
 10 19  2  0
 19 20  1  0
 20 21  1  0
 21 22  2  0
 22 23  1  0
 23 24  2  0
  6 25  2  0
 25  2  1  0
 24  8  1  0
 18 13  1  0
 23 19  1  0
  3 26  1  0
  4 27  1  0
  5 28  1  0
  7 29  1  0
 12 30  1  0
 12 31  1  0
 13 32  1  0
 14 33  1  0
 14 34  1  0
 15 35  1  0
 15 36  1  0
 16 37  1  0
 16 38  1  0
 17 39  1  0
 17 40  1  0
 18 41  1  0
 18 42  1  0
 20 43  1  0
 21 44  1  0
 25 45  1  0
M  END
>  <meeko>  (5) 
{"is_sidechain": false}

>  <CID>  (5) 
5329552

>  <pose_index>  (5) 
9

>  <docking_score>  (5) 
-8.365

>  <rmsd_to_best_selected>  (5) 
1.499438412553356

>  <MWT>  (5) 
402.29599999999976

>  <TPSA>  (5) 
75.72

>  <logP>  (5) 
4.818100000000003

>  <HBD>  (5) 
2

>  <HBA>  (5) 
5

>  <SMILES>  (5) 
[H]c1c([H])c(Br)c([H])c(N([H])c2nc(OC([H])([H])C3([H])C([H])([H])C([H])([H])C([H])([H])C([H])([H])C3([H])[H])c3c(n2)nc([H])n3[H])c1[H]

$$$$
