76328458_pose1
     RDKit          3D

 45 48  0  0  0  0  0  0  0  0999 V2000
    1.1230   45.6530   56.1490 N   0  0  0  0  0  0  0  0  0  0  0  0
    2.1870   45.3140   55.3330 C   0  0  0  0  0  0  0  0  0  0  0  0
    3.4000   45.7360   55.7310 N   0  0  0  0  0  0  0  0  0  0  0  0
    4.4700   45.4280   54.9770 C   0  0  0  0  0  0  0  0  0  0  0  0
    5.7430   45.8150   55.3220 O   0  0  0  0  0  0  0  0  0  0  0  0
    6.2580   46.9500   54.6230 C   0  0  0  0  0  0  0  0  0  0  0  0
    7.4490   46.5740   53.7250 C   0  0  0  0  0  0  0  0  0  0  0  0
    8.7760   47.1350   54.2770 C   0  0  0  0  0  0  0  0  0  0  0  0
    9.8750   47.2700   53.2200 C   0  0  0  0  0  0  0  0  0  0  0  0
    9.7020   46.2750   52.0810 C   0  0  0  0  0  0  0  0  0  0  0  0
    8.3660   46.4650   51.3620 C   0  0  0  0  0  0  0  0  0  0  0  0
    7.2530   47.0020   52.2670 C   0  0  0  0  0  0  0  0  0  0  0  0
    4.2650   44.6660   53.8550 C   0  0  0  0  0  0  0  0  0  0  0  0
    5.0630   44.1500   52.8800 N   0  0  0  0  0  0  0  0  0  0  0  0
    4.2690   43.4470   51.9970 C   0  0  0  0  0  0  0  0  0  0  0  0
    4.7650   42.7430   50.8080 C   0  0  0  0  0  0  0  0  0  0  0  0
    5.9000   43.2390   50.1480 C   0  0  0  0  0  0  0  0  0  0  0  0
    6.4110   42.6030   49.0130 C   0  0  0  0  0  0  0  0  0  0  0  0
    5.7920   41.4580   48.5200 C   0  0  0  0  0  0  0  0  0  0  0  0
    4.6640   40.9510   49.1610 C   0  0  0  0  0  0  0  0  0  0  0  0
    4.1530   41.5880   50.2970 C   0  0  0  0  0  0  0  0  0  0  0  0
    3.0030   43.5080   52.3880 N   0  0  0  0  0  0  0  0  0  0  0  0
    2.9930   44.2590   53.5300 C   0  0  0  0  0  0  0  0  0  0  0  0
    1.9110   44.5680   54.2630 N   0  0  0  0  0  0  0  0  0  0  0  0
    1.2360   46.5970   56.4890 H   0  0  0  0  0  0  0  0  0  0  0  0
    0.9770   44.9240   56.8340 H   0  0  0  0  0  0  0  0  0  0  0  0
    5.4598   47.3751   53.9968 H   0  0  0  0  0  0  0  0  0  0  0  0
    6.6074   47.6809   55.3671 H   0  0  0  0  0  0  0  0  0  0  0  0
    7.5011   45.4753   53.7375 H   0  0  0  0  0  0  0  0  0  0  0  0
    8.5813   48.1297   54.7043 H   0  0  0  0  0  0  0  0  0  0  0  0
    9.1395   46.4187   55.0285 H   0  0  0  0  0  0  0  0  0  0  0  0
    9.8466   48.2893   52.8074 H   0  0  0  0  0  0  0  0  0  0  0  0
   10.8393   47.0621   53.7067 H   0  0  0  0  0  0  0  0  0  0  0  0
   10.5190   46.4153   51.3580 H   0  0  0  0  0  0  0  0  0  0  0  0
    9.7214   45.2606   52.5060 H   0  0  0  0  0  0  0  0  0  0  0  0
    8.5142   47.1747   50.5348 H   0  0  0  0  0  0  0  0  0  0  0  0
    8.0453   45.4733   51.0104 H   0  0  0  0  0  0  0  0  0  0  0  0
    7.2514   48.1008   52.2156 H   0  0  0  0  0  0  0  0  0  0  0  0
    6.2965   46.5883   51.9148 H   0  0  0  0  0  0  0  0  0  0  0  0
    6.0630   44.2690   52.8210 H   0  0  0  0  0  0  0  0  0  0  0  0
    6.3958   44.1434   50.5303 H   0  0  0  0  0  0  0  0  0  0  0  0
    7.3017   43.0071   48.5098 H   0  0  0  0  0  0  0  0  0  0  0  0
    6.1922   40.9552   47.6272 H   0  0  0  0  0  0  0  0  0  0  0  0
    4.1732   40.0464   48.7726 H   0  0  0  0  0  0  0  0  0  0  0  0
    3.2616   41.1790   50.7952 H   0  0  0  0  0  0  0  0  0  0  0  0
  1  2  1  0
  2  3  2  0
  3  4  1  0
  4  5  1  0
  5  6  1  0
  6  7  1  0
  7  8  1  0
  8  9  1  0
  9 10  1  0
 10 11  1  0
 11 12  1  0
  4 13  2  0
 13 14  1  0
 14 15  1  0
 15 16  1  0
 16 17  2  0
 17 18  1  0
 18 19  2  0
 19 20  1  0
 20 21  2  0
 15 22  2  0
 22 23  1  0
 23 24  2  0
 24  2  1  0
 12  7  1  0
 23 13  1  0
 21 16  1  0
  1 25  1  0
  1 26  1  0
  6 27  1  0
  6 28  1  0
  7 29  1  0
  8 30  1  0
  8 31  1  0
  9 32  1  0
  9 33  1  0
 10 34  1  0
 10 35  1  0
 11 36  1  0
 11 37  1  0
 12 38  1  0
 12 39  1  0
 14 40  1  0
 17 41  1  0
 18 42  1  0
 19 43  1  0
 20 44  1  0
 21 45  1  0
M  END
>  <meeko>  (1) 
{"is_sidechain": false}

>  <CID>  (1) 
76328458

>  <pose_index>  (1) 
1

>  <docking_score>  (1) 
-9.436

>  <rmsd_to_best_selected>  (1) 
0.0

>  <MWT>  (1) 
323.3999999999996

>  <TPSA>  (1) 
89.71

>  <logP>  (1) 
3.5612000000000013

>  <HBD>  (1) 
2

>  <HBA>  (1) 
5

>  <SMILES>  (1) 
[H]c1c([H])c([H])c(-c2nc3nc(N([H])[H])nc(OC([H])([H])C4([H])C([H])([H])C([H])([H])C([H])([H])C([H])([H])C4([H])[H])c3n2[H])c([H])c1[H]

$$$$
76328458_pose2
     RDKit          3D

 45 48  0  0  0  0  0  0  0  0999 V2000
    1.7964   46.2376   55.7980 N   0  0  0  0  0  0  0  0  0  0  0  0
    2.7009   45.5985   54.9686 C   0  0  0  0  0  0  0  0  0  0  0  0
    3.9863   45.6216   55.3613 N   0  0  0  0  0  0  0  0  0  0  0  0
    4.9065   45.0109   54.5951 C   0  0  0  0  0  0  0  0  0  0  0  0
    6.2393   44.9819   54.9341 O   0  0  0  0  0  0  0  0  0  0  0  0
    6.8219   46.2445   55.2663 C   0  0  0  0  0  0  0  0  0  0  0  0
    8.0327   46.5639   54.3725 C   0  0  0  0  0  0  0  0  0  0  0  0
    8.5243   48.0121   54.5803 C   0  0  0  0  0  0  0  0  0  0  0  0
    9.3332   48.5630   53.4029 C   0  0  0  0  0  0  0  0  0  0  0  0
   10.0307   47.4594   52.6183 C   0  0  0  0  0  0  0  0  0  0  0  0
    9.0300   46.4560   52.0428 C   0  0  0  0  0  0  0  0  0  0  0  0
    7.7626   46.2991   52.8876 C   0  0  0  0  0  0  0  0  0  0  0  0
    4.4727   44.3659   53.4651 C   0  0  0  0  0  0  0  0  0  0  0  0
    5.0698   43.6428   52.4765 N   0  0  0  0  0  0  0  0  0  0  0  0
    4.0935   43.2310   51.5919 C   0  0  0  0  0  0  0  0  0  0  0  0
    4.3438   42.4250   50.3900 C   0  0  0  0  0  0  0  0  0  0  0  0
    3.5032   41.3365   50.1134 C   0  0  0  0  0  0  0  0  0  0  0  0
    3.7008   40.5404   48.9808 C   0  0  0  0  0  0  0  0  0  0  0  0
    4.7466   40.8234   48.1066 C   0  0  0  0  0  0  0  0  0  0  0  0
    5.5912   41.8994   48.3655 C   0  0  0  0  0  0  0  0  0  0  0  0
    5.3939   42.6964   49.4984 C   0  0  0  0  0  0  0  0  0  0  0  0
    2.9100   43.6716   51.9949 N   0  0  0  0  0  0  0  0  0  0  0  0
    3.1357   44.3745   53.1458 C   0  0  0  0  0  0  0  0  0  0  0  0
    2.2048   44.9890   53.8921 N   0  0  0  0  0  0  0  0  0  0  0  0
    1.0543   45.6023   56.0530 H   0  0  0  0  0  0  0  0  0  0  0  0
    1.5331   47.1245   55.3914 H   0  0  0  0  0  0  0  0  0  0  0  0
    6.0649   47.0319   55.1363 H   0  0  0  0  0  0  0  0  0  0  0  0
    7.1676   46.1993   56.3096 H   0  0  0  0  0  0  0  0  0  0  0  0
    8.8301   45.8740   54.6858 H   0  0  0  0  0  0  0  0  0  0  0  0
    7.6469   48.6582   54.7313 H   0  0  0  0  0  0  0  0  0  0  0  0
    9.1936   48.0021   55.4532 H   0  0  0  0  0  0  0  0  0  0  0  0
    8.6531   49.1025   52.7273 H   0  0  0  0  0  0  0  0  0  0  0  0
   10.1076   49.2308   53.8081 H   0  0  0  0  0  0  0  0  0  0  0  0
   10.5966   47.9130   51.7912 H   0  0  0  0  0  0  0  0  0  0  0  0
   10.7003   46.9208   53.3050 H   0  0  0  0  0  0  0  0  0  0  0  0
    8.7380   46.7940   51.0376 H   0  0  0  0  0  0  0  0  0  0  0  0
    9.5296   45.4761   52.0267 H   0  0  0  0  0  0  0  0  0  0  0  0
    7.0059   47.0131   52.5304 H   0  0  0  0  0  0  0  0  0  0  0  0
    7.4083   45.2630   52.7837 H   0  0  0  0  0  0  0  0  0  0  0  0
    6.0576   43.4488   52.4117 H   0  0  0  0  0  0  0  0  0  0  0  0
    2.6746   41.1053   50.7990 H   0  0  0  0  0  0  0  0  0  0  0  0
    3.0305   39.6914   48.7809 H   0  0  0  0  0  0  0  0  0  0  0  0
    4.9050   40.1993   47.2148 H   0  0  0  0  0  0  0  0  0  0  0  0
    6.4180   42.1242   47.6757 H   0  0  0  0  0  0  0  0  0  0  0  0
    6.0680   43.5438   49.6924 H   0  0  0  0  0  0  0  0  0  0  0  0
  1  2  1  0
  2  3  2  0
  3  4  1  0
  4  5  1  0
  5  6  1  0
  6  7  1  0
  7  8  1  0
  8  9  1  0
  9 10  1  0
 10 11  1  0
 11 12  1  0
  4 13  2  0
 13 14  1  0
 14 15  1  0
 15 16  1  0
 16 17  2  0
 17 18  1  0
 18 19  2  0
 19 20  1  0
 20 21  2  0
 15 22  2  0
 22 23  1  0
 23 24  2  0
 24  2  1  0
 12  7  1  0
 23 13  1  0
 21 16  1  0
  1 25  1  0
  1 26  1  0
  6 27  1  0
  6 28  1  0
  7 29  1  0
  8 30  1  0
  8 31  1  0
  9 32  1  0
  9 33  1  0
 10 34  1  0
 10 35  1  0
 11 36  1  0
 11 37  1  0
 12 38  1  0
 12 39  1  0
 14 40  1  0
 17 41  1  0
 18 42  1  0
 19 43  1  0
 20 44  1  0
 21 45  1  0
M  END
>  <meeko>  (2) 
{"is_sidechain": false}

>  <CID>  (2) 
76328458

>  <pose_index>  (2) 
2

>  <docking_score>  (2) 
-9.402

>  <rmsd_to_best_selected>  (2) 
1.2123294908558964

>  <MWT>  (2) 
323.3999999999996

>  <TPSA>  (2) 
89.71

>  <logP>  (2) 
3.5612000000000013

>  <HBD>  (2) 
2

>  <HBA>  (2) 
5

>  <SMILES>  (2) 
[H]c1c([H])c([H])c(-c2nc3nc(N([H])[H])nc(OC([H])([H])C4([H])C([H])([H])C([H])([H])C([H])([H])C([H])([H])C4([H])[H])c3n2[H])c([H])c1[H]

$$$$
76328458_pose3
     RDKit          3D

 45 48  0  0  0  0  0  0  0  0999 V2000
    1.7690   46.1097   55.8136 N   0  0  0  0  0  0  0  0  0  0  0  0
    2.6530   45.5000   54.9406 C   0  0  0  0  0  0  0  0  0  0  0  0
    3.9537   45.5556   55.2767 N   0  0  0  0  0  0  0  0  0  0  0  0
    4.8542   44.9729   54.4665 C   0  0  0  0  0  0  0  0  0  0  0  0
    6.2010   44.9784   54.7465 O   0  0  0  0  0  0  0  0  0  0  0  0
    6.7495   46.2418   55.1308 C   0  0  0  0  0  0  0  0  0  0  0  0
    7.6850   46.8071   54.0493 C   0  0  0  0  0  0  0  0  0  0  0  0
    8.7341   45.7662   53.6041 C   0  0  0  0  0  0  0  0  0  0  0  0
    9.9812   46.3816   52.9652 C   0  0  0  0  0  0  0  0  0  0  0  0
    9.6900   47.7262   52.3153 C   0  0  0  0  0  0  0  0  0  0  0  0
    9.1598   48.7419   53.3281 C   0  0  0  0  0  0  0  0  0  0  0  0
    8.3726   48.1072   54.4785 C   0  0  0  0  0  0  0  0  0  0  0  0
    4.3880   44.3213   53.3535 C   0  0  0  0  0  0  0  0  0  0  0  0
    4.9592   43.6190   52.3359 N   0  0  0  0  0  0  0  0  0  0  0  0
    3.9566   43.1858   51.4920 C   0  0  0  0  0  0  0  0  0  0  0  0
    4.1745   42.3932   50.2766 C   0  0  0  0  0  0  0  0  0  0  0  0
    3.3417   41.2923   50.0225 C   0  0  0  0  0  0  0  0  0  0  0  0
    3.5085   40.5084   48.8776 C   0  0  0  0  0  0  0  0  0  0  0  0
    4.5161   40.8138   47.9679 C   0  0  0  0  0  0  0  0  0  0  0  0
    5.3544   41.9020   48.2023 C   0  0  0  0  0  0  0  0  0  0  0  0
    5.1856   42.6864   49.3480 C   0  0  0  0  0  0  0  0  0  0  0  0
    2.7803   43.5932   51.9501 N   0  0  0  0  0  0  0  0  0  0  0  0
    3.0390   44.2960   53.0935 C   0  0  0  0  0  0  0  0  0  0  0  0
    2.1254   44.8818   53.8841 N   0  0  0  0  0  0  0  0  0  0  0  0
    0.9640   46.4509   55.3072 H   0  0  0  0  0  0  0  0  0  0  0  0
    2.2684   46.7689   56.3946 H   0  0  0  0  0  0  0  0  0  0  0  0
    5.9264   46.9522   55.2974 H   0  0  0  0  0  0  0  0  0  0  0  0
    7.3359   46.0962   56.0501 H   0  0  0  0  0  0  0  0  0  0  0  0
    7.0416   47.0464   53.1897 H   0  0  0  0  0  0  0  0  0  0  0  0
    9.0457   45.1883   54.4867 H   0  0  0  0  0  0  0  0  0  0  0  0
    8.2574   45.1384   52.8369 H   0  0  0  0  0  0  0  0  0  0  0  0
   10.7452   46.5226   53.7439 H   0  0  0  0  0  0  0  0  0  0  0  0
   10.3317   45.6957   52.1799 H   0  0  0  0  0  0  0  0  0  0  0  0
   10.6181   48.1161   51.8720 H   0  0  0  0  0  0  0  0  0  0  0  0
    8.9185   47.5749   51.5460 H   0  0  0  0  0  0  0  0  0  0  0  0
   10.0148   49.2890   53.7520 H   0  0  0  0  0  0  0  0  0  0  0  0
    8.4658   49.4033   52.7886 H   0  0  0  0  0  0  0  0  0  0  0  0
    9.0647   47.8878   55.3048 H   0  0  0  0  0  0  0  0  0  0  0  0
    7.5939   48.8179   54.7924 H   0  0  0  0  0  0  0  0  0  0  0  0
    5.9477   43.4527   52.2258 H   0  0  0  0  0  0  0  0  0  0  0  0
    2.5437   41.0422   50.7372 H   0  0  0  0  0  0  0  0  0  0  0  0
    2.8439   39.6510   48.6959 H   0  0  0  0  0  0  0  0  0  0  0  0
    4.6505   40.1981   47.0663 H   0  0  0  0  0  0  0  0  0  0  0  0
    6.1513   42.1449   47.4841 H   0  0  0  0  0  0  0  0  0  0  0  0
    5.8529   43.5431   49.5233 H   0  0  0  0  0  0  0  0  0  0  0  0
  1  2  1  0
  2  3  2  0
  3  4  1  0
  4  5  1  0
  5  6  1  0
  6  7  1  0
  7  8  1  0
  8  9  1  0
  9 10  1  0
 10 11  1  0
 11 12  1  0
  4 13  2  0
 13 14  1  0
 14 15  1  0
 15 16  1  0
 16 17  2  0
 17 18  1  0
 18 19  2  0
 19 20  1  0
 20 21  2  0
 15 22  2  0
 22 23  1  0
 23 24  2  0
 24  2  1  0
 12  7  1  0
 23 13  1  0
 21 16  1  0
  1 25  1  0
  1 26  1  0
  6 27  1  0
  6 28  1  0
  7 29  1  0
  8 30  1  0
  8 31  1  0
  9 32  1  0
  9 33  1  0
 10 34  1  0
 10 35  1  0
 11 36  1  0
 11 37  1  0
 12 38  1  0
 12 39  1  0
 14 40  1  0
 17 41  1  0
 18 42  1  0
 19 43  1  0
 20 44  1  0
 21 45  1  0
M  END
>  <meeko>  (3) 
{"is_sidechain": false}

>  <CID>  (3) 
76328458

>  <pose_index>  (3) 
3

>  <docking_score>  (3) 
-9.256

>  <rmsd_to_best_selected>  (3) 
1.6760264529844342

>  <MWT>  (3) 
323.3999999999996

>  <TPSA>  (3) 
89.71

>  <logP>  (3) 
3.5612000000000013

>  <HBD>  (3) 
2

>  <HBA>  (3) 
5

>  <SMILES>  (3) 
[H]c1c([H])c([H])c(-c2nc3nc(N([H])[H])nc(OC([H])([H])C4([H])C([H])([H])C([H])([H])C([H])([H])C([H])([H])C4([H])[H])c3n2[H])c([H])c1[H]

$$$$
76328458_pose4
     RDKit          3D

 45 48  0  0  0  0  0  0  0  0999 V2000
    1.3538   45.0562   56.6641 N   0  0  0  0  0  0  0  0  0  0  0  0
    2.3491   44.9161   55.7139 C   0  0  0  0  0  0  0  0  0  0  0  0
    3.5212   45.5140   55.9866 N   0  0  0  0  0  0  0  0  0  0  0  0
    4.5249   45.4031   55.0995 C   0  0  0  0  0  0  0  0  0  0  0  0
    5.7553   45.9785   55.3113 O   0  0  0  0  0  0  0  0  0  0  0  0
    6.1463   46.9746   54.3628 C   0  0  0  0  0  0  0  0  0  0  0  0
    7.5305   46.6775   53.7628 C   0  0  0  0  0  0  0  0  0  0  0  0
    8.3656   47.9641   53.5964 C   0  0  0  0  0  0  0  0  0  0  0  0
    9.4836   47.8431   52.5576 C   0  0  0  0  0  0  0  0  0  0  0  0
    9.9656   46.4088   52.3969 C   0  0  0  0  0  0  0  0  0  0  0  0
    8.8373   45.4794   51.9481 C   0  0  0  0  0  0  0  0  0  0  0  0
    7.4525   45.9157   52.4364 C   0  0  0  0  0  0  0  0  0  0  0  0
    4.3034   44.6517   53.9733 C   0  0  0  0  0  0  0  0  0  0  0  0
    5.0456   44.2985   52.8876 N   0  0  0  0  0  0  0  0  0  0  0  0
    4.2679   43.5031   52.0708 C   0  0  0  0  0  0  0  0  0  0  0  0
    4.7176   42.9221   50.7996 C   0  0  0  0  0  0  0  0  0  0  0  0
    6.0781   42.9897   50.4634 C   0  0  0  0  0  0  0  0  0  0  0  0
    6.5542   42.4507   49.2656 C   0  0  0  0  0  0  0  0  0  0  0  0
    5.6732   41.8336   48.3823 C   0  0  0  0  0  0  0  0  0  0  0  0
    4.3181   41.7573   48.6979 C   0  0  0  0  0  0  0  0  0  0  0  0
    3.8418   42.2975   49.8976 C   0  0  0  0  0  0  0  0  0  0  0  0
    3.0664   43.3492   52.6097 N   0  0  0  0  0  0  0  0  0  0  0  0
    3.0799   44.0569   53.7800 C   0  0  0  0  0  0  0  0  0  0  0  0
    2.0628   44.1668   54.6489 N   0  0  0  0  0  0  0  0  0  0  0  0
    0.4767   45.2804   56.2158 H   0  0  0  0  0  0  0  0  0  0  0  0
    1.6728   45.6735   57.3990 H   0  0  0  0  0  0  0  0  0  0  0  0
    5.4048   47.0039   53.5509 H   0  0  0  0  0  0  0  0  0  0  0  0
    6.1992   47.9418   54.8840 H   0  0  0  0  0  0  0  0  0  0  0  0
    8.0380   46.0217   54.4854 H   0  0  0  0  0  0  0  0  0  0  0  0
    7.6922   48.7776   53.2885 H   0  0  0  0  0  0  0  0  0  0  0  0
    8.8475   48.1616   54.5653 H   0  0  0  0  0  0  0  0  0  0  0  0
    9.1067   48.2010   51.5882 H   0  0  0  0  0  0  0  0  0  0  0  0
   10.3340   48.4484   52.9045 H   0  0  0  0  0  0  0  0  0  0  0  0
   10.7678   46.3846   51.6447 H   0  0  0  0  0  0  0  0  0  0  0  0
   10.3301   46.0583   53.3738 H   0  0  0  0  0  0  0  0  0  0  0  0
    8.8257   45.4523   50.8485 H   0  0  0  0  0  0  0  0  0  0  0  0
    9.0383   44.4917   52.3887 H   0  0  0  0  0  0  0  0  0  0  0  0
    6.9968   46.5684   51.6772 H   0  0  0  0  0  0  0  0  0  0  0  0
    6.8463   45.0119   52.5966 H   0  0  0  0  0  0  0  0  0  0  0  0
    6.0004   44.5775   52.7177 H   0  0  0  0  0  0  0  0  0  0  0  0
    6.7821   43.4755   51.1550 H   0  0  0  0  0  0  0  0  0  0  0  0
    7.6248   42.5140   49.0208 H   0  0  0  0  0  0  0  0  0  0  0  0
    6.0452   41.4077   47.4388 H   0  0  0  0  0  0  0  0  0  0  0  0
    3.6200   41.2704   48.0011 H   0  0  0  0  0  0  0  0  0  0  0  0
    2.7700   42.2320   50.1364 H   0  0  0  0  0  0  0  0  0  0  0  0
  1  2  1  0
  2  3  2  0
  3  4  1  0
  4  5  1  0
  5  6  1  0
  6  7  1  0
  7  8  1  0
  8  9  1  0
  9 10  1  0
 10 11  1  0
 11 12  1  0
  4 13  2  0
 13 14  1  0
 14 15  1  0
 15 16  1  0
 16 17  2  0
 17 18  1  0
 18 19  2  0
 19 20  1  0
 20 21  2  0
 15 22  2  0
 22 23  1  0
 23 24  2  0
 24  2  1  0
 12  7  1  0
 23 13  1  0
 21 16  1  0
  1 25  1  0
  1 26  1  0
  6 27  1  0
  6 28  1  0
  7 29  1  0
  8 30  1  0
  8 31  1  0
  9 32  1  0
  9 33  1  0
 10 34  1  0
 10 35  1  0
 11 36  1  0
 11 37  1  0
 12 38  1  0
 12 39  1  0
 14 40  1  0
 17 41  1  0
 18 42  1  0
 19 43  1  0
 20 44  1  0
 21 45  1  0
M  END
>  <meeko>  (4) 
{"is_sidechain": false}

>  <CID>  (4) 
76328458

>  <pose_index>  (4) 
4

>  <docking_score>  (4) 
-8.841

>  <rmsd_to_best_selected>  (4) 
1.0095112861057063

>  <MWT>  (4) 
323.3999999999996

>  <TPSA>  (4) 
89.71

>  <logP>  (4) 
3.5612000000000013

>  <HBD>  (4) 
2

>  <HBA>  (4) 
5

>  <SMILES>  (4) 
[H]c1c([H])c([H])c(-c2nc3nc(N([H])[H])nc(OC([H])([H])C4([H])C([H])([H])C([H])([H])C([H])([H])C([H])([H])C4([H])[H])c3n2[H])c([H])c1[H]

$$$$
76328458_pose7
     RDKit          3D

 45 48  0  0  0  0  0  0  0  0999 V2000
    1.0384   46.2387   55.7562 N   0  0  0  0  0  0  0  0  0  0  0  0
    2.1125   45.7469   55.0353 C   0  0  0  0  0  0  0  0  0  0  0  0
    3.3333   46.0422   55.5141 N   0  0  0  0  0  0  0  0  0  0  0  0
    4.4123   45.5837   54.8546 C   0  0  0  0  0  0  0  0  0  0  0  0
    5.6943   45.8338   55.2867 O   0  0  0  0  0  0  0  0  0  0  0  0
    6.3494   46.9453   54.6717 C   0  0  0  0  0  0  0  0  0  0  0  0
    7.6010   46.5087   53.8914 C   0  0  0  0  0  0  0  0  0  0  0  0
    8.8674   47.2300   54.3997 C   0  0  0  0  0  0  0  0  0  0  0  0
   10.0073   47.2659   53.3784 C   0  0  0  0  0  0  0  0  0  0  0  0
    9.9446   46.0970   52.4055 C   0  0  0  0  0  0  0  0  0  0  0  0
    8.6353   46.0893   51.6141 C   0  0  0  0  0  0  0  0  0  0  0  0
    7.4528   46.6907   52.3785 C   0  0  0  0  0  0  0  0  0  0  0  0
    4.2018   44.8086   53.7429 C   0  0  0  0  0  0  0  0  0  0  0  0
    5.0035   44.1673   52.8482 N   0  0  0  0  0  0  0  0  0  0  0  0
    4.1992   43.5274   51.9266 C   0  0  0  0  0  0  0  0  0  0  0  0
    4.6950   42.7252   50.8005 C   0  0  0  0  0  0  0  0  0  0  0  0
    3.8125   42.3951   49.7605 C   0  0  0  0  0  0  0  0  0  0  0  0
    4.2383   41.6352   48.6675 C   0  0  0  0  0  0  0  0  0  0  0  0
    5.5560   41.1938   48.5987 C   0  0  0  0  0  0  0  0  0  0  0  0
    6.4459   41.5111   49.6219 C   0  0  0  0  0  0  0  0  0  0  0  0
    6.0196   42.2722   50.7160 C   0  0  0  0  0  0  0  0  0  0  0  0
    2.9243   43.7480   52.2166 N   0  0  0  0  0  0  0  0  0  0  0  0
    2.9182   44.5396   53.3322 C   0  0  0  0  0  0  0  0  0  0  0  0
    1.8297   44.9978   53.9702 N   0  0  0  0  0  0  0  0  0  0  0  0
    0.1715   45.9687   55.3128 H   0  0  0  0  0  0  0  0  0  0  0  0
    1.1794   47.2214   55.9461 H   0  0  0  0  0  0  0  0  0  0  0  0
    5.6487   47.4323   53.9775 H   0  0  0  0  0  0  0  0  0  0  0  0
    6.6650   47.6388   55.4651 H   0  0  0  0  0  0  0  0  0  0  0  0
    7.7125   45.4306   54.0793 H   0  0  0  0  0  0  0  0  0  0  0  0
    8.5981   48.2653   54.6559 H   0  0  0  0  0  0  0  0  0  0  0  0
    9.2327   46.6636   55.2690 H   0  0  0  0  0  0  0  0  0  0  0  0
    9.9432   48.2048   52.8088 H   0  0  0  0  0  0  0  0  0  0  0  0
   10.9568   47.1962   53.9295 H   0  0  0  0  0  0  0  0  0  0  0  0
   10.7863   46.1736   51.7015 H   0  0  0  0  0  0  0  0  0  0  0  0
    9.9999   45.1643   52.9861 H   0  0  0  0  0  0  0  0  0  0  0  0
    8.7836   46.6689   50.6910 H   0  0  0  0  0  0  0  0  0  0  0  0
    8.3869   45.0369   51.4121 H   0  0  0  0  0  0  0  0  0  0  0  0
    7.3933   47.7658   52.1535 H   0  0  0  0  0  0  0  0  0  0  0  0
    6.5387   46.1684   52.0595 H   0  0  0  0  0  0  0  0  0  0  0  0
    6.0116   44.1672   52.8634 H   0  0  0  0  0  0  0  0  0  0  0  0
    2.7689   42.7399   49.8062 H   0  0  0  0  0  0  0  0  0  0  0  0
    3.5320   41.3863   47.8618 H   0  0  0  0  0  0  0  0  0  0  0  0
    5.8937   40.5962   47.7392 H   0  0  0  0  0  0  0  0  0  0  0  0
    7.4878   41.1621   49.5697 H   0  0  0  0  0  0  0  0  0  0  0  0
    6.7310   42.5179   51.5182 H   0  0  0  0  0  0  0  0  0  0  0  0
  1  2  1  0
  2  3  2  0
  3  4  1  0
  4  5  1  0
  5  6  1  0
  6  7  1  0
  7  8  1  0
  8  9  1  0
  9 10  1  0
 10 11  1  0
 11 12  1  0
  4 13  2  0
 13 14  1  0
 14 15  1  0
 15 16  1  0
 16 17  2  0
 17 18  1  0
 18 19  2  0
 19 20  1  0
 20 21  2  0
 15 22  2  0
 22 23  1  0
 23 24  2  0
 24  2  1  0
 12  7  1  0
 23 13  1  0
 21 16  1  0
  1 25  1  0
  1 26  1  0
  6 27  1  0
  6 28  1  0
  7 29  1  0
  8 30  1  0
  8 31  1  0
  9 32  1  0
  9 33  1  0
 10 34  1  0
 10 35  1  0
 11 36  1  0
 11 37  1  0
 12 38  1  0
 12 39  1  0
 14 40  1  0
 17 41  1  0
 18 42  1  0
 19 43  1  0
 20 44  1  0
 21 45  1  0
M  END
>  <meeko>  (5) 
{"is_sidechain": false}

>  <CID>  (5) 
76328458

>  <pose_index>  (5) 
7

>  <docking_score>  (5) 
-8.105

>  <rmsd_to_best_selected>  (5) 
0.6520979341240425

>  <MWT>  (5) 
323.3999999999996

>  <TPSA>  (5) 
89.71

>  <logP>  (5) 
3.5612000000000013

>  <HBD>  (5) 
2

>  <HBA>  (5) 
5

>  <SMILES>  (5) 
[H]c1c([H])c([H])c(-c2nc3nc(N([H])[H])nc(OC([H])([H])C4([H])C([H])([H])C([H])([H])C([H])([H])C([H])([H])C4([H])[H])c3n2[H])c([H])c1[H]

$$$$
76328458_pose8
     RDKit          3D

 45 48  0  0  0  0  0  0  0  0999 V2000
    1.8254   45.8201   56.2355 N   0  0  0  0  0  0  0  0  0  0  0  0
    2.5885   45.6456   55.0943 C   0  0  0  0  0  0  0  0  0  0  0  0
    3.4294   46.6469   54.7829 N   0  0  0  0  0  0  0  0  0  0  0  0
    4.1993   46.5254   53.6874 C   0  0  0  0  0  0  0  0  0  0  0  0
    5.0910   47.5012   53.3080 O   0  0  0  0  0  0  0  0  0  0  0  0
    6.1536   47.7626   54.2289 C   0  0  0  0  0  0  0  0  0  0  0  0
    7.3561   46.8356   53.9880 C   0  0  0  0  0  0  0  0  0  0  0  0
    8.6647   47.4511   54.5272 C   0  0  0  0  0  0  0  0  0  0  0  0
    9.9283   46.8784   53.8798 C   0  0  0  0  0  0  0  0  0  0  0  0
    9.7223   45.4574   53.3741 C   0  0  0  0  0  0  0  0  0  0  0  0
    8.6101   45.3854   52.3266 C   0  0  0  0  0  0  0  0  0  0  0  0
    7.5186   46.4425   52.5155 C   0  0  0  0  0  0  0  0  0  0  0  0
    4.1059   45.3633   52.9645 C   0  0  0  0  0  0  0  0  0  0  0  0
    4.7087   44.8705   51.8472 N   0  0  0  0  0  0  0  0  0  0  0  0
    4.1967   43.6133   51.5970 C   0  0  0  0  0  0  0  0  0  0  0  0
    4.6002   42.7576   50.4743 C   0  0  0  0  0  0  0  0  0  0  0  0
    5.5767   43.2231   49.5804 C   0  0  0  0  0  0  0  0  0  0  0  0
    5.9938   42.4443   48.4972 C   0  0  0  0  0  0  0  0  0  0  0  0
    5.4379   41.1856   48.2918 C   0  0  0  0  0  0  0  0  0  0  0  0
    4.4663   40.7067   49.1673 C   0  0  0  0  0  0  0  0  0  0  0  0
    4.0490   41.4858   50.2515 C   0  0  0  0  0  0  0  0  0  0  0  0
    3.2966   43.3064   52.5211 N   0  0  0  0  0  0  0  0  0  0  0  0
    3.2326   44.3801   53.3640 C   0  0  0  0  0  0  0  0  0  0  0  0
    2.4480   44.4888   54.4476 N   0  0  0  0  0  0  0  0  0  0  0  0
    1.9714   46.7469   56.6105 H   0  0  0  0  0  0  0  0  0  0  0  0
    1.9644   45.0364   56.8583 H   0  0  0  0  0  0  0  0  0  0  0  0
    6.4791   48.8067   54.1106 H   0  0  0  0  0  0  0  0  0  0  0  0
    5.7781   47.5796   55.2465 H   0  0  0  0  0  0  0  0  0  0  0  0
    7.1437   45.9141   54.5500 H   0  0  0  0  0  0  0  0  0  0  0  0
    8.6405   48.5351   54.3417 H   0  0  0  0  0  0  0  0  0  0  0  0
    8.7153   47.2089   55.5990 H   0  0  0  0  0  0  0  0  0  0  0  0
   10.2129   47.5184   53.0316 H   0  0  0  0  0  0  0  0  0  0  0  0
   10.7179   46.8532   54.6451 H   0  0  0  0  0  0  0  0  0  0  0  0
   10.6600   45.0999   52.9236 H   0  0  0  0  0  0  0  0  0  0  0  0
    9.4304   44.8285   54.2280 H   0  0  0  0  0  0  0  0  0  0  0  0
    9.0598   45.5240   51.3323 H   0  0  0  0  0  0  0  0  0  0  0  0
    8.1286   44.4024   52.4354 H   0  0  0  0  0  0  0  0  0  0  0  0
    7.7859   47.3380   51.9353 H   0  0  0  0  0  0  0  0  0  0  0  0
    6.5659   46.0163   52.1681 H   0  0  0  0  0  0  0  0  0  0  0  0
    5.4078   45.3524   51.3007 H   0  0  0  0  0  0  0  0  0  0  0  0
    6.0212   44.2174   49.7347 H   0  0  0  0  0  0  0  0  0  0  0  0
    6.7610   42.8264   47.8077 H   0  0  0  0  0  0  0  0  0  0  0  0
    5.7648   40.5704   47.4405 H   0  0  0  0  0  0  0  0  0  0  0  0
    4.0254   39.7120   49.0056 H   0  0  0  0  0  0  0  0  0  0  0  0
    3.2808   41.0980   50.9367 H   0  0  0  0  0  0  0  0  0  0  0  0
  1  2  1  0
  2  3  2  0
  3  4  1  0
  4  5  1  0
  5  6  1  0
  6  7  1  0
  7  8  1  0
  8  9  1  0
  9 10  1  0
 10 11  1  0
 11 12  1  0
  4 13  2  0
 13 14  1  0
 14 15  1  0
 15 16  1  0
 16 17  2  0
 17 18  1  0
 18 19  2  0
 19 20  1  0
 20 21  2  0
 15 22  2  0
 22 23  1  0
 23 24  2  0
 24  2  1  0
 12  7  1  0
 23 13  1  0
 21 16  1  0
  1 25  1  0
  1 26  1  0
  6 27  1  0
  6 28  1  0
  7 29  1  0
  8 30  1  0
  8 31  1  0
  9 32  1  0
  9 33  1  0
 10 34  1  0
 10 35  1  0
 11 36  1  0
 11 37  1  0
 12 38  1  0
 12 39  1  0
 14 40  1  0
 17 41  1  0
 18 42  1  0
 19 43  1  0
 20 44  1  0
 21 45  1  0
M  END
>  <meeko>  (6) 
{"is_sidechain": false}

>  <CID>  (6) 
76328458

>  <pose_index>  (6) 
8

>  <docking_score>  (6) 
-8.105

>  <rmsd_to_best_selected>  (6) 
1.0211323280036813

>  <MWT>  (6) 
323.3999999999996

>  <TPSA>  (6) 
89.71

>  <logP>  (6) 
3.5612000000000013

>  <HBD>  (6) 
2

>  <HBA>  (6) 
5

>  <SMILES>  (6) 
[H]c1c([H])c([H])c(-c2nc3nc(N([H])[H])nc(OC([H])([H])C4([H])C([H])([H])C([H])([H])C([H])([H])C([H])([H])C4([H])[H])c3n2[H])c([H])c1[H]

$$$$
76328458_pose9
     RDKit          3D

 45 48  0  0  0  0  0  0  0  0999 V2000
    1.4163   46.1747   56.1599 N   0  0  0  0  0  0  0  0  0  0  0  0
    2.3794   45.9642   55.1890 C   0  0  0  0  0  0  0  0  0  0  0  0
    3.3052   46.9290   55.0503 N   0  0  0  0  0  0  0  0  0  0  0  0
    4.2680   46.7699   54.1253 C   0  0  0  0  0  0  0  0  0  0  0  0
    5.2558   47.7073   53.9306 O   0  0  0  0  0  0  0  0  0  0  0  0
    6.4523   47.5143   54.6895 C   0  0  0  0  0  0  0  0  0  0  0  0
    7.5859   46.9349   53.8275 C   0  0  0  0  0  0  0  0  0  0  0  0
    7.4463   47.3553   52.3495 C   0  0  0  0  0  0  0  0  0  0  0  0
    8.1777   46.4294   51.3731 C   0  0  0  0  0  0  0  0  0  0  0  0
    9.3667   45.7354   52.0218 C   0  0  0  0  0  0  0  0  0  0  0  0
    8.9396   44.8792   53.2147 C   0  0  0  0  0  0  0  0  0  0  0  0
    7.7006   45.4116   53.9410 C   0  0  0  0  0  0  0  0  0  0  0  0
    4.2687   45.6105   53.3932 C   0  0  0  0  0  0  0  0  0  0  0  0
    5.0564   45.0882   52.4118 N   0  0  0  0  0  0  0  0  0  0  0  0
    4.5514   43.8516   52.0631 C   0  0  0  0  0  0  0  0  0  0  0  0
    5.1286   42.9756   51.0374 C   0  0  0  0  0  0  0  0  0  0  0  0
    6.1805   43.4584   50.2421 C   0  0  0  0  0  0  0  0  0  0  0  0
    6.7640   42.6615   49.2535 C   0  0  0  0  0  0  0  0  0  0  0  0
    6.3017   41.3657   49.0444 C   0  0  0  0  0  0  0  0  0  0  0  0
    5.2592   40.8688   49.8216 C   0  0  0  0  0  0  0  0  0  0  0  0
    4.6749   41.6671   50.8117 C   0  0  0  0  0  0  0  0  0  0  0  0
    3.4769   43.5859   52.7934 N   0  0  0  0  0  0  0  0  0  0  0  0
    3.2944   44.6652   53.6121 C   0  0  0  0  0  0  0  0  0  0  0  0
    2.3190   44.8109   54.5225 N   0  0  0  0  0  0  0  0  0  0  0  0
    0.7727   45.3966   56.1840 H   0  0  0  0  0  0  0  0  0  0  0  0
    1.0246   47.1007   56.0521 H   0  0  0  0  0  0  0  0  0  0  0  0
    6.7751   48.4831   55.0985 H   0  0  0  0  0  0  0  0  0  0  0  0
    6.2349   46.7984   55.4959 H   0  0  0  0  0  0  0  0  0  0  0  0
    8.5174   47.3620   54.2273 H   0  0  0  0  0  0  0  0  0  0  0  0
    6.3775   47.3594   52.0893 H   0  0  0  0  0  0  0  0  0  0  0  0
    7.9061   48.3500   52.2540 H   0  0  0  0  0  0  0  0  0  0  0  0
    7.4731   45.6645   51.0147 H   0  0  0  0  0  0  0  0  0  0  0  0
    8.5565   47.0442   50.5434 H   0  0  0  0  0  0  0  0  0  0  0  0
    9.8534   45.0900   51.2758 H   0  0  0  0  0  0  0  0  0  0  0  0
   10.0591   46.5091   52.3853 H   0  0  0  0  0  0  0  0  0  0  0  0
    8.7208   43.8637   52.8530 H   0  0  0  0  0  0  0  0  0  0  0  0
    9.7688   44.8971   53.9372 H   0  0  0  0  0  0  0  0  0  0  0  0
    6.8040   44.9529   53.4986 H   0  0  0  0  0  0  0  0  0  0  0  0
    7.7916   45.1538   55.0065 H   0  0  0  0  0  0  0  0  0  0  0  0
    5.8669   45.5379   52.0145 H   0  0  0  0  0  0  0  0  0  0  0  0
    6.5516   44.4817   50.4001 H   0  0  0  0  0  0  0  0  0  0  0  0
    7.5876   43.0579   48.6415 H   0  0  0  0  0  0  0  0  0  0  0  0
    6.7588   40.7358   48.2670 H   0  0  0  0  0  0  0  0  0  0  0  0
    4.8931   39.8446   49.6569 H   0  0  0  0  0  0  0  0  0  0  0  0
    3.8511   41.2645   51.4194 H   0  0  0  0  0  0  0  0  0  0  0  0
  1  2  1  0
  2  3  2  0
  3  4  1  0
  4  5  1  0
  5  6  1  0
  6  7  1  0
  7  8  1  0
  8  9  1  0
  9 10  1  0
 10 11  1  0
 11 12  1  0
  4 13  2  0
 13 14  1  0
 14 15  1  0
 15 16  1  0
 16 17  2  0
 17 18  1  0
 18 19  2  0
 19 20  1  0
 20 21  2  0
 15 22  2  0
 22 23  1  0
 23 24  2  0
 24  2  1  0
 12  7  1  0
 23 13  1  0
 21 16  1  0
  1 25  1  0
  1 26  1  0
  6 27  1  0
  6 28  1  0
  7 29  1  0
  8 30  1  0
  8 31  1  0
  9 32  1  0
  9 33  1  0
 10 34  1  0
 10 35  1  0
 11 36  1  0
 11 37  1  0
 12 38  1  0
 12 39  1  0
 14 40  1  0
 17 41  1  0
 18 42  1  0
 19 43  1  0
 20 44  1  0
 21 45  1  0
M  END
>  <meeko>  (7) 
{"is_sidechain": false}

>  <CID>  (7) 
76328458

>  <pose_index>  (7) 
9

>  <docking_score>  (7) 
-8.081

>  <rmsd_to_best_selected>  (7) 
1.3789621858935839

>  <MWT>  (7) 
323.3999999999996

>  <TPSA>  (7) 
89.71

>  <logP>  (7) 
3.5612000000000013

>  <HBD>  (7) 
2

>  <HBA>  (7) 
5

>  <SMILES>  (7) 
[H]c1c([H])c([H])c(-c2nc3nc(N([H])[H])nc(OC([H])([H])C4([H])C([H])([H])C([H])([H])C([H])([H])C([H])([H])C4([H])[H])c3n2[H])c([H])c1[H]

$$$$
