Z1013695804_pose10
     RDKit          3D

 41 44  0  0  0  0  0  0  0  0999 V2000
    8.5051   49.6159   54.2303 F   0  0  0  0  0  0  0  0  0  0  0  0
    8.3059   48.4481   53.6068 C   0  0  0  0  0  0  0  0  0  0  0  0
    7.0995   47.7839   53.7650 C   0  0  0  0  0  0  0  0  0  0  0  0
    6.8974   46.5649   53.1119 C   0  0  0  0  0  0  0  0  0  0  0  0
    7.8934   45.9960   52.2971 C   0  0  0  0  0  0  0  0  0  0  0  0
    7.6233   44.7760   51.6683 N   0  0  0  0  0  0  0  0  0  0  0  0
    6.4726   44.0212   51.4627 C   0  0  0  0  0  0  0  0  0  0  0  0
    5.3501   44.2355   52.1454 N   0  0  0  0  0  0  0  0  0  0  0  0
    4.2686   43.4689   51.8847 C   0  0  0  0  0  0  0  0  0  0  0  0
    3.0867   43.7264   52.6229 N   0  0  0  0  0  0  0  0  0  0  0  0
    2.0529   44.4398   51.8618 C   0  0  0  0  0  0  0  0  0  0  0  0
    2.4036   45.9269   51.7278 C   0  0  0  0  0  0  0  0  0  0  0  0
    3.0506   46.5086   52.9868 C   0  0  0  0  0  0  0  0  0  0  0  0
    2.7991   45.6388   54.2108 C   0  0  0  0  0  0  0  0  0  0  0  0
    3.2623   44.1913   54.0079 C   0  0  0  0  0  0  0  0  0  0  0  0
    4.2983   42.4421   50.9284 C   0  0  0  0  0  0  0  0  0  0  0  0
    3.2476   41.6057   50.6312 N   0  0  0  0  0  0  0  0  0  0  0  0
    3.4606   40.6656   49.6942 C   0  0  0  0  0  0  0  0  0  0  0  0
    4.6724   40.5527   49.0627 C   0  0  0  0  0  0  0  0  0  0  0  0
    5.7101   41.3691   49.3457 N   0  0  0  0  0  0  0  0  0  0  0  0
    5.5355   42.3115   50.2807 C   0  0  0  0  0  0  0  0  0  0  0  0
    6.5858   43.0780   50.5316 N   0  0  0  0  0  0  0  0  0  0  0  0
    9.0980   46.6962   52.1577 C   0  0  0  0  0  0  0  0  0  0  0  0
    9.3075   47.9160   52.8091 C   0  0  0  0  0  0  0  0  0  0  0  0
    6.3088   48.2121   54.3985 H   0  0  0  0  0  0  0  0  0  0  0  0
    5.9394   46.0391   53.2375 H   0  0  0  0  0  0  0  0  0  0  0  0
    8.4029   44.3056   51.2298 H   0  0  0  0  0  0  0  0  0  0  0  0
    1.9733   43.9963   50.8584 H   0  0  0  0  0  0  0  0  0  0  0  0
    1.0963   44.3502   52.3973 H   0  0  0  0  0  0  0  0  0  0  0  0
    3.1033   46.0470   50.8876 H   0  0  0  0  0  0  0  0  0  0  0  0
    1.4623   46.4715   51.5621 H   0  0  0  0  0  0  0  0  0  0  0  0
    4.1357   46.5879   52.8244 H   0  0  0  0  0  0  0  0  0  0  0  0
    2.6033   47.4960   53.1738 H   0  0  0  0  0  0  0  0  0  0  0  0
    3.3433   46.0668   55.0656 H   0  0  0  0  0  0  0  0  0  0  0  0
    1.7140   45.6203   54.3902 H   0  0  0  0  0  0  0  0  0  0  0  0
    4.3287   44.1235   54.2691 H   0  0  0  0  0  0  0  0  0  0  0  0
    2.6432   43.5513   54.6537 H   0  0  0  0  0  0  0  0  0  0  0  0
    2.6474   39.9740   49.4291 H   0  0  0  0  0  0  0  0  0  0  0  0
    4.8036   39.7709   48.3000 H   0  0  0  0  0  0  0  0  0  0  0  0
    9.8945   46.2790   51.5240 H   0  0  0  0  0  0  0  0  0  0  0  0
   10.2615   48.4504   52.6891 H   0  0  0  0  0  0  0  0  0  0  0  0
  1  2  1  0
  2  3  2  0
  3  4  1  0
  4  5  2  0
  5  6  1  0
  6  7  1  0
  7  8  2  0
  8  9  1  0
  9 10  1  0
 10 11  1  0
 11 12  1  0
 12 13  1  0
 13 14  1  0
 14 15  1  0
  9 16  2  0
 16 17  1  0
 17 18  2  0
 18 19  1  0
 19 20  2  0
 20 21  1  0
 21 22  2  0
  5 23  1  0
 23 24  2  0
 24  2  1  0
 22  7  1  0
 15 10  1  0
 21 16  1  0
  3 25  1  0
  4 26  1  0
  6 27  1  0
 11 28  1  0
 11 29  1  0
 12 30  1  0
 12 31  1  0
 13 32  1  0
 13 33  1  0
 14 34  1  0
 14 35  1  0
 15 36  1  0
 15 37  1  0
 18 38  1  0
 19 39  1  0
 23 40  1  0
 24 41  1  0
M  END
>  <meeko>  (1) 
{"is_sidechain": false}

>  <CID>  (1) 
Z1013695804

>  <pose_index>  (1) 
10

>  <docking_score>  (1) 
-7.895

>  <rmsd_to_best_selected>  (1) 
1.3514325043563205

>  <MWT>  (1) 
324.3629999999997

>  <TPSA>  (1) 
66.83000000000001

>  <logP>  (1) 
3.2928000000000015

>  <HBD>  (1) 
1

>  <HBA>  (1) 
6

>  <SMILES>  (1) 
[H]c1nc2nc(N([H])c3c([H])c([H])c(F)c([H])c3[H])nc(N3C([H])([H])C([H])([H])C([H])([H])C([H])([H])C3([H])[H])c2nc1[H]

$$$$
Z1013695804_pose1
     RDKit          3D

 41 44  0  0  0  0  0  0  0  0999 V2000
   10.8380   47.5430   55.1200 F   0  0  0  0  0  0  0  0  0  0  0  0
    9.9090   47.2010   54.2190 C   0  0  0  0  0  0  0  0  0  0  0  0
    8.5660   47.3120   54.5420 C   0  0  0  0  0  0  0  0  0  0  0  0
    7.6010   46.9530   53.5980 C   0  0  0  0  0  0  0  0  0  0  0  0
    7.9640   46.4770   52.3240 C   0  0  0  0  0  0  0  0  0  0  0  0
    6.9470   46.1400   51.4250 N   0  0  0  0  0  0  0  0  0  0  0  0
    6.0750   45.0620   51.3010 C   0  0  0  0  0  0  0  0  0  0  0  0
    5.0080   44.9170   52.0830 N   0  0  0  0  0  0  0  0  0  0  0  0
    4.2010   43.8500   51.8980 C   0  0  0  0  0  0  0  0  0  0  0  0
    3.0680   43.7280   52.7410 N   0  0  0  0  0  0  0  0  0  0  0  0
    1.7910   43.6700   52.0180 C   0  0  0  0  0  0  0  0  0  0  0  0
    1.3840   45.0610   51.5180 C   0  0  0  0  0  0  0  0  0  0  0  0
    1.7220   46.1800   52.5080 C   0  0  0  0  0  0  0  0  0  0  0  0
    1.9640   45.6440   53.9120 C   0  0  0  0  0  0  0  0  0  0  0  0
    3.0530   44.5660   53.9500 C   0  0  0  0  0  0  0  0  0  0  0  0
    4.4630   42.8790   50.9180 C   0  0  0  0  0  0  0  0  0  0  0  0
    3.7040   41.7560   50.6920 N   0  0  0  0  0  0  0  0  0  0  0  0
    4.1140   40.9260   49.7180 C   0  0  0  0  0  0  0  0  0  0  0  0
    5.2400   41.1940   48.9810 C   0  0  0  0  0  0  0  0  0  0  0  0
    5.9920   42.2960   49.1940 N   0  0  0  0  0  0  0  0  0  0  0  0
    5.6160   43.1400   50.1630 C   0  0  0  0  0  0  0  0  0  0  0  0
    6.3940   44.1980   50.3410 N   0  0  0  0  0  0  0  0  0  0  0  0
    9.3290   46.3810   52.0300 C   0  0  0  0  0  0  0  0  0  0  0  0
   10.3010   46.7380   52.9720 C   0  0  0  0  0  0  0  0  0  0  0  0
    8.2624   47.6797   55.5333 H   0  0  0  0  0  0  0  0  0  0  0  0
    6.5355   47.0441   53.8555 H   0  0  0  0  0  0  0  0  0  0  0  0
    6.7450   46.8060   50.6920 H   0  0  0  0  0  0  0  0  0  0  0  0
    1.8947   42.9935   51.1569 H   0  0  0  0  0  0  0  0  0  0  0  0
    1.0143   43.3010   52.7039 H   0  0  0  0  0  0  0  0  0  0  0  0
    1.9093   45.2602   50.5723 H   0  0  0  0  0  0  0  0  0  0  0  0
    0.2915   45.0561   51.3903 H   0  0  0  0  0  0  0  0  0  0  0  0
    2.6299   46.6969   52.1636 H   0  0  0  0  0  0  0  0  0  0  0  0
    0.8646   46.8679   52.5496 H   0  0  0  0  0  0  0  0  0  0  0  0
    2.2709   46.4783   54.5599 H   0  0  0  0  0  0  0  0  0  0  0  0
    1.0271   45.1846   54.2601 H   0  0  0  0  0  0  0  0  0  0  0  0
    4.0317   45.0584   54.0485 H   0  0  0  0  0  0  0  0  0  0  0  0
    2.8389   43.9089   54.8058 H   0  0  0  0  0  0  0  0  0  0  0  0
    3.5359   40.0142   49.5074 H   0  0  0  0  0  0  0  0  0  0  0  0
    5.5399   40.4891   48.1916 H   0  0  0  0  0  0  0  0  0  0  0  0
    9.6438   46.0183   51.0404 H   0  0  0  0  0  0  0  0  0  0  0  0
   11.3693   46.6518   52.7245 H   0  0  0  0  0  0  0  0  0  0  0  0
  1  2  1  0
  2  3  2  0
  3  4  1  0
  4  5  2  0
  5  6  1  0
  6  7  1  0
  7  8  2  0
  8  9  1  0
  9 10  1  0
 10 11  1  0
 11 12  1  0
 12 13  1  0
 13 14  1  0
 14 15  1  0
  9 16  2  0
 16 17  1  0
 17 18  2  0
 18 19  1  0
 19 20  2  0
 20 21  1  0
 21 22  2  0
  5 23  1  0
 23 24  2  0
 24  2  1  0
 22  7  1  0
 15 10  1  0
 21 16  1  0
  3 25  1  0
  4 26  1  0
  6 27  1  0
 11 28  1  0
 11 29  1  0
 12 30  1  0
 12 31  1  0
 13 32  1  0
 13 33  1  0
 14 34  1  0
 14 35  1  0
 15 36  1  0
 15 37  1  0
 18 38  1  0
 19 39  1  0
 23 40  1  0
 24 41  1  0
M  END
>  <meeko>  (2) 
{"is_sidechain": false}

>  <CID>  (2) 
Z1013695804

>  <pose_index>  (2) 
1

>  <docking_score>  (2) 
-9.448

>  <rmsd_to_best_selected>  (2) 
0.0

>  <MWT>  (2) 
324.3629999999997

>  <TPSA>  (2) 
66.83000000000001

>  <logP>  (2) 
3.2928000000000015

>  <HBD>  (2) 
1

>  <HBA>  (2) 
6

>  <SMILES>  (2) 
[H]c1nc2nc(N([H])c3c([H])c([H])c(F)c([H])c3[H])nc(N3C([H])([H])C([H])([H])C([H])([H])C([H])([H])C3([H])[H])c2nc1[H]

$$$$
Z1013695804_pose2
     RDKit          3D

 41 44  0  0  0  0  0  0  0  0999 V2000
    8.8102   49.7724   53.6613 F   0  0  0  0  0  0  0  0  0  0  0  0
    8.5415   48.5034   53.3323 C   0  0  0  0  0  0  0  0  0  0  0  0
    7.2318   48.1197   53.0901 C   0  0  0  0  0  0  0  0  0  0  0  0
    6.9564   46.7926   52.7480 C   0  0  0  0  0  0  0  0  0  0  0  0
    7.9835   45.8363   52.6452 C   0  0  0  0  0  0  0  0  0  0  0  0
    7.6398   44.5267   52.2931 N   0  0  0  0  0  0  0  0  0  0  0  0
    6.4825   43.9198   51.8139 C   0  0  0  0  0  0  0  0  0  0  0  0
    5.3081   44.0443   52.4275 N   0  0  0  0  0  0  0  0  0  0  0  0
    4.2250   43.4337   51.8984 C   0  0  0  0  0  0  0  0  0  0  0  0
    2.9871   43.5927   52.5705 N   0  0  0  0  0  0  0  0  0  0  0  0
    1.9989   44.3776   51.8210 C   0  0  0  0  0  0  0  0  0  0  0  0
    2.3300   45.8736   51.8829 C   0  0  0  0  0  0  0  0  0  0  0  0
    2.8716   46.3131   53.2464 C   0  0  0  0  0  0  0  0  0  0  0  0
    2.5478   45.3054   54.3410 C   0  0  0  0  0  0  0  0  0  0  0  0
    3.0516   43.8968   54.0092 C   0  0  0  0  0  0  0  0  0  0  0  0
    4.3040   42.6561   50.7324 C   0  0  0  0  0  0  0  0  0  0  0  0
    3.2522   41.9854   50.1547 N   0  0  0  0  0  0  0  0  0  0  0  0
    3.5160   41.2752   49.0440 C   0  0  0  0  0  0  0  0  0  0  0  0
    4.7797   41.2301   48.5114 C   0  0  0  0  0  0  0  0  0  0  0  0
    5.8191   41.8873   49.0703 N   0  0  0  0  0  0  0  0  0  0  0  0
    5.5930   42.5969   50.1826 C   0  0  0  0  0  0  0  0  0  0  0  0
    6.6463   43.2123   50.6992 N   0  0  0  0  0  0  0  0  0  0  0  0
    9.2945   46.2588   52.8920 C   0  0  0  0  0  0  0  0  0  0  0  0
    9.5769   47.5850   53.2361 C   0  0  0  0  0  0  0  0  0  0  0  0
    6.4158   48.8534   53.1666 H   0  0  0  0  0  0  0  0  0  0  0  0
    5.9165   46.4900   52.5554 H   0  0  0  0  0  0  0  0  0  0  0  0
    8.3664   43.8283   52.3643 H   0  0  0  0  0  0  0  0  0  0  0  0
    2.0009   44.0512   50.7706 H   0  0  0  0  0  0  0  0  0  0  0  0
    1.0078   44.2174   52.2704 H   0  0  0  0  0  0  0  0  0  0  0  0
    3.0873   46.0965   51.1169 H   0  0  0  0  0  0  0  0  0  0  0  0
    1.3937   46.4242   51.7089 H   0  0  0  0  0  0  0  0  0  0  0  0
    3.9639   46.4222   53.1761 H   0  0  0  0  0  0  0  0  0  0  0  0
    2.3923   47.2672   53.5106 H   0  0  0  0  0  0  0  0  0  0  0  0
    3.0201   45.6377   55.2772 H   0  0  0  0  0  0  0  0  0  0  0  0
    1.4531   45.2552   54.4360 H   0  0  0  0  0  0  0  0  0  0  0  0
    4.0970   43.8103   54.3403 H   0  0  0  0  0  0  0  0  0  0  0  0
    2.3986   43.1803   54.5290 H   0  0  0  0  0  0  0  0  0  0  0  0
    2.7034   40.7197   48.5530 H   0  0  0  0  0  0  0  0  0  0  0  0
    4.9520   40.6396   47.5995 H   0  0  0  0  0  0  0  0  0  0  0  0
   10.1186   45.5344   52.8139 H   0  0  0  0  0  0  0  0  0  0  0  0
   10.6137   47.8978   53.4293 H   0  0  0  0  0  0  0  0  0  0  0  0
  1  2  1  0
  2  3  2  0
  3  4  1  0
  4  5  2  0
  5  6  1  0
  6  7  1  0
  7  8  2  0
  8  9  1  0
  9 10  1  0
 10 11  1  0
 11 12  1  0
 12 13  1  0
 13 14  1  0
 14 15  1  0
  9 16  2  0
 16 17  1  0
 17 18  2  0
 18 19  1  0
 19 20  2  0
 20 21  1  0
 21 22  2  0
  5 23  1  0
 23 24  2  0
 24  2  1  0
 22  7  1  0
 15 10  1  0
 21 16  1  0
  3 25  1  0
  4 26  1  0
  6 27  1  0
 11 28  1  0
 11 29  1  0
 12 30  1  0
 12 31  1  0
 13 32  1  0
 13 33  1  0
 14 34  1  0
 14 35  1  0
 15 36  1  0
 15 37  1  0
 18 38  1  0
 19 39  1  0
 23 40  1  0
 24 41  1  0
M  END
>  <meeko>  (3) 
{"is_sidechain": false}

>  <CID>  (3) 
Z1013695804

>  <pose_index>  (3) 
2

>  <docking_score>  (3) 
-8.861

>  <rmsd_to_best_selected>  (3) 
1.5165176831169533

>  <MWT>  (3) 
324.3629999999997

>  <TPSA>  (3) 
66.83000000000001

>  <logP>  (3) 
3.2928000000000015

>  <HBD>  (3) 
1

>  <HBA>  (3) 
6

>  <SMILES>  (3) 
[H]c1nc2nc(N([H])c3c([H])c([H])c(F)c([H])c3[H])nc(N3C([H])([H])C([H])([H])C([H])([H])C([H])([H])C3([H])[H])c2nc1[H]

$$$$
Z1013695804_pose3
     RDKit          3D

 41 44  0  0  0  0  0  0  0  0999 V2000
   10.0533   48.5032   54.6566 F   0  0  0  0  0  0  0  0  0  0  0  0
    9.3160   47.8854   53.7263 C   0  0  0  0  0  0  0  0  0  0  0  0
    7.9329   47.9630   53.7820 C   0  0  0  0  0  0  0  0  0  0  0  0
    7.1693   47.3144   52.8086 C   0  0  0  0  0  0  0  0  0  0  0  0
    7.7746   46.5798   51.7720 C   0  0  0  0  0  0  0  0  0  0  0  0
    6.9503   45.9597   50.8271 N   0  0  0  0  0  0  0  0  0  0  0  0
    6.0436   44.9042   50.8696 C   0  0  0  0  0  0  0  0  0  0  0  0
    4.7597   45.0827   51.1711 N   0  0  0  0  0  0  0  0  0  0  0  0
    3.9357   44.0124   51.1838 C   0  0  0  0  0  0  0  0  0  0  0  0
    2.5727   44.2360   51.5001 N   0  0  0  0  0  0  0  0  0  0  0  0
    2.1868   45.6521   51.5102 C   0  0  0  0  0  0  0  0  0  0  0  0
    2.6907   46.3449   52.7818 C   0  0  0  0  0  0  0  0  0  0  0  0
    2.6035   45.4577   54.0259 C   0  0  0  0  0  0  0  0  0  0  0  0
    1.6507   44.2871   53.8246 C   0  0  0  0  0  0  0  0  0  0  0  0
    2.0123   43.4381   52.6021 C   0  0  0  0  0  0  0  0  0  0  0  0
    4.3956   42.7157   50.9060 C   0  0  0  0  0  0  0  0  0  0  0  0
    3.6227   41.5787   50.9273 N   0  0  0  0  0  0  0  0  0  0  0  0
    4.2371   40.4163   50.6487 C   0  0  0  0  0  0  0  0  0  0  0  0
    5.5755   40.3715   50.3524 C   0  0  0  0  0  0  0  0  0  0  0  0
    6.3428   41.4828   50.3267 N   0  0  0  0  0  0  0  0  0  0  0  0
    5.7652   42.6571   50.6080 C   0  0  0  0  0  0  0  0  0  0  0  0
    6.5628   43.7137   50.5831 N   0  0  0  0  0  0  0  0  0  0  0  0
    9.1729   46.5247   51.7442 C   0  0  0  0  0  0  0  0  0  0  0  0
    9.9440   47.1714   52.7162 C   0  0  0  0  0  0  0  0  0  0  0  0
    7.4410   48.5305   54.5858 H   0  0  0  0  0  0  0  0  0  0  0  0
    6.0721   47.3792   52.8532 H   0  0  0  0  0  0  0  0  0  0  0  0
    6.9632   46.3385   49.8898 H   0  0  0  0  0  0  0  0  0  0  0  0
    2.6217   46.1507   50.6314 H   0  0  0  0  0  0  0  0  0  0  0  0
    1.0891   45.7185   51.4840 H   0  0  0  0  0  0  0  0  0  0  0  0
    3.7415   46.6326   52.6303 H   0  0  0  0  0  0  0  0  0  0  0  0
    2.0447   47.2180   52.9566 H   0  0  0  0  0  0  0  0  0  0  0  0
    3.6056   45.0651   54.2534 H   0  0  0  0  0  0  0  0  0  0  0  0
    2.2193   46.0705   54.8547 H   0  0  0  0  0  0  0  0  0  0  0  0
    1.6831   43.6483   54.7195 H   0  0  0  0  0  0  0  0  0  0  0  0
    0.6450   44.7004   53.6580 H   0  0  0  0  0  0  0  0  0  0  0  0
    2.7552   42.6852   52.9042 H   0  0  0  0  0  0  0  0  0  0  0  0
    1.0854   42.9723   52.2361 H   0  0  0  0  0  0  0  0  0  0  0  0
    3.6554   39.4828   50.6586 H   0  0  0  0  0  0  0  0  0  0  0  0
    6.0389   39.3993   50.1286 H   0  0  0  0  0  0  0  0  0  0  0  0
    9.6750   45.9624   50.9431 H   0  0  0  0  0  0  0  0  0  0  0  0
   11.0418   47.1140   52.6797 H   0  0  0  0  0  0  0  0  0  0  0  0
  1  2  1  0
  2  3  2  0
  3  4  1  0
  4  5  2  0
  5  6  1  0
  6  7  1  0
  7  8  2  0
  8  9  1  0
  9 10  1  0
 10 11  1  0
 11 12  1  0
 12 13  1  0
 13 14  1  0
 14 15  1  0
  9 16  2  0
 16 17  1  0
 17 18  2  0
 18 19  1  0
 19 20  2  0
 20 21  1  0
 21 22  2  0
  5 23  1  0
 23 24  2  0
 24  2  1  0
 22  7  1  0
 15 10  1  0
 21 16  1  0
  3 25  1  0
  4 26  1  0
  6 27  1  0
 11 28  1  0
 11 29  1  0
 12 30  1  0
 12 31  1  0
 13 32  1  0
 13 33  1  0
 14 34  1  0
 14 35  1  0
 15 36  1  0
 15 37  1  0
 18 38  1  0
 19 39  1  0
 23 40  1  0
 24 41  1  0
M  END
>  <meeko>  (4) 
{"is_sidechain": false}

>  <CID>  (4) 
Z1013695804

>  <pose_index>  (4) 
3

>  <docking_score>  (4) 
-8.746

>  <rmsd_to_best_selected>  (4) 
1.6791376966347056

>  <MWT>  (4) 
324.3629999999997

>  <TPSA>  (4) 
66.83000000000001

>  <logP>  (4) 
3.2928000000000015

>  <HBD>  (4) 
1

>  <HBA>  (4) 
6

>  <SMILES>  (4) 
[H]c1nc2nc(N([H])c3c([H])c([H])c(F)c([H])c3[H])nc(N3C([H])([H])C([H])([H])C([H])([H])C([H])([H])C3([H])[H])c2nc1[H]

$$$$
Z1013695804_pose4
     RDKit          3D

 41 44  0  0  0  0  0  0  0  0999 V2000
    8.4704   49.5301   54.4356 F   0  0  0  0  0  0  0  0  0  0  0  0
    8.2751   48.3855   53.7688 C   0  0  0  0  0  0  0  0  0  0  0  0
    7.0096   48.0726   53.2972 C   0  0  0  0  0  0  0  0  0  0  0  0
    6.8129   46.8772   52.6025 C   0  0  0  0  0  0  0  0  0  0  0  0
    7.8726   45.9802   52.3720 C   0  0  0  0  0  0  0  0  0  0  0  0
    7.6072   44.8031   51.6656 N   0  0  0  0  0  0  0  0  0  0  0  0
    6.4553   44.0749   51.3842 C   0  0  0  0  0  0  0  0  0  0  0  0
    5.3328   44.2225   52.0847 N   0  0  0  0  0  0  0  0  0  0  0  0
    4.2496   43.4883   51.7481 C   0  0  0  0  0  0  0  0  0  0  0  0
    3.0682   43.6734   52.5070 N   0  0  0  0  0  0  0  0  0  0  0  0
    2.0730   44.5374   51.8605 C   0  0  0  0  0  0  0  0  0  0  0  0
    2.4805   46.0113   51.9643 C   0  0  0  0  0  0  0  0  0  0  0  0
    3.1303   46.3626   53.3052 C   0  0  0  0  0  0  0  0  0  0  0  0
    2.8299   45.3218   54.3745 C   0  0  0  0  0  0  0  0  0  0  0  0
    3.2410   43.9080   53.9497 C   0  0  0  0  0  0  0  0  0  0  0  0
    4.2776   42.5620   50.6930 C   0  0  0  0  0  0  0  0  0  0  0  0
    3.2252   41.7629   50.3126 N   0  0  0  0  0  0  0  0  0  0  0  0
    3.4357   40.9213   49.2871 C   0  0  0  0  0  0  0  0  0  0  0  0
    4.6489   40.8689   48.6463 C   0  0  0  0  0  0  0  0  0  0  0  0
    5.6876   41.6514   49.0114 N   0  0  0  0  0  0  0  0  0  0  0  0
    5.5144   42.4949   50.0365 C   0  0  0  0  0  0  0  0  0  0  0  0
    6.5672   43.2303   50.3631 N   0  0  0  0  0  0  0  0  0  0  0  0
    9.1379   46.3299   52.8596 C   0  0  0  0  0  0  0  0  0  0  0  0
    9.3421   47.5254   53.5567 C   0  0  0  0  0  0  0  0  0  0  0  0
    6.1679   48.7598   53.4686 H   0  0  0  0  0  0  0  0  0  0  0  0
    5.8084   46.6315   52.2274 H   0  0  0  0  0  0  0  0  0  0  0  0
    8.3945   44.3496   51.2199 H   0  0  0  0  0  0  0  0  0  0  0  0
    1.9902   44.2602   50.7993 H   0  0  0  0  0  0  0  0  0  0  0  0
    1.1068   44.4027   52.3687 H   0  0  0  0  0  0  0  0  0  0  0  0
    3.1966   46.2338   51.1595 H   0  0  0  0  0  0  0  0  0  0  0  0
    1.5630   46.6117   51.8776 H   0  0  0  0  0  0  0  0  0  0  0  0
    4.2198   46.4249   53.1663 H   0  0  0  0  0  0  0  0  0  0  0  0
    2.7165   47.3246   53.6416 H   0  0  0  0  0  0  0  0  0  0  0  0
    3.3782   45.5884   55.2901 H   0  0  0  0  0  0  0  0  0  0  0  0
    1.7425   45.3178   54.5406 H   0  0  0  0  0  0  0  0  0  0  0  0
    4.3002   43.7581   54.2059 H   0  0  0  0  0  0  0  0  0  0  0  0
    2.5886   43.1995   54.4811 H   0  0  0  0  0  0  0  0  0  0  0  0
    2.6208   40.2617   48.9543 H   0  0  0  0  0  0  0  0  0  0  0  0
    4.7791   40.1674   47.8090 H   0  0  0  0  0  0  0  0  0  0  0  0
    9.9874   45.6517   52.6912 H   0  0  0  0  0  0  0  0  0  0  0  0
   10.3430   47.7817   53.9343 H   0  0  0  0  0  0  0  0  0  0  0  0
  1  2  1  0
  2  3  2  0
  3  4  1  0
  4  5  2  0
  5  6  1  0
  6  7  1  0
  7  8  2  0
  8  9  1  0
  9 10  1  0
 10 11  1  0
 11 12  1  0
 12 13  1  0
 13 14  1  0
 14 15  1  0
  9 16  2  0
 16 17  1  0
 17 18  2  0
 18 19  1  0
 19 20  2  0
 20 21  1  0
 21 22  2  0
  5 23  1  0
 23 24  2  0
 24  2  1  0
 22  7  1  0
 15 10  1  0
 21 16  1  0
  3 25  1  0
  4 26  1  0
  6 27  1  0
 11 28  1  0
 11 29  1  0
 12 30  1  0
 12 31  1  0
 13 32  1  0
 13 33  1  0
 14 34  1  0
 14 35  1  0
 15 36  1  0
 15 37  1  0
 18 38  1  0
 19 39  1  0
 23 40  1  0
 24 41  1  0
M  END
>  <meeko>  (5) 
{"is_sidechain": false}

>  <CID>  (5) 
Z1013695804

>  <pose_index>  (5) 
4

>  <docking_score>  (5) 
-8.606

>  <rmsd_to_best_selected>  (5) 
1.512288035891569

>  <MWT>  (5) 
324.3629999999997

>  <TPSA>  (5) 
66.83000000000001

>  <logP>  (5) 
3.2928000000000015

>  <HBD>  (5) 
1

>  <HBA>  (5) 
6

>  <SMILES>  (5) 
[H]c1nc2nc(N([H])c3c([H])c([H])c(F)c([H])c3[H])nc(N3C([H])([H])C([H])([H])C([H])([H])C([H])([H])C3([H])[H])c2nc1[H]

$$$$
Z1013695804_pose6
     RDKit          3D

 41 44  0  0  0  0  0  0  0  0999 V2000
    9.1347   48.8376   55.1089 F   0  0  0  0  0  0  0  0  0  0  0  0
    8.7034   48.0307   54.1309 C   0  0  0  0  0  0  0  0  0  0  0  0
    7.3540   47.9955   53.8160 C   0  0  0  0  0  0  0  0  0  0  0  0
    6.9098   47.1510   52.7960 C   0  0  0  0  0  0  0  0  0  0  0  0
    7.8044   46.3323   52.0815 C   0  0  0  0  0  0  0  0  0  0  0  0
    7.2940   45.5137   51.0688 N   0  0  0  0  0  0  0  0  0  0  0  0
    6.2793   44.5624   51.0035 C   0  0  0  0  0  0  0  0  0  0  0  0
    5.2819   44.5275   51.8833 N   0  0  0  0  0  0  0  0  0  0  0  0
    4.3264   43.5804   51.7522 C   0  0  0  0  0  0  0  0  0  0  0  0
    3.2728   43.5734   52.6993 N   0  0  0  0  0  0  0  0  0  0  0  0
    1.9818   44.0152   52.1574 C   0  0  0  0  0  0  0  0  0  0  0  0
    1.9512   45.5403   51.9963 C   0  0  0  0  0  0  0  0  0  0  0  0
    2.6662   46.2788   53.1303 C   0  0  0  0  0  0  0  0  0  0  0  0
    2.8501   45.3984   54.3585 C   0  0  0  0  0  0  0  0  0  0  0  0
    3.5875   44.0923   54.0394 C   0  0  0  0  0  0  0  0  0  0  0  0
    4.3659   42.6215   50.7275 C   0  0  0  0  0  0  0  0  0  0  0  0
    3.4464   41.6140   50.5496 N   0  0  0  0  0  0  0  0  0  0  0  0
    3.6500   40.7753   49.5190 C   0  0  0  0  0  0  0  0  0  0  0  0
    4.7265   40.9249   48.6824 C   0  0  0  0  0  0  0  0  0  0  0  0
    5.6336   41.9113   48.8476 N   0  0  0  0  0  0  0  0  0  0  0  0
    5.4663   42.7604   49.8692 C   0  0  0  0  0  0  0  0  0  0  0  0
    6.3894   43.7014   49.9959 N   0  0  0  0  0  0  0  0  0  0  0  0
    9.1605   46.3963   52.4234 C   0  0  0  0  0  0  0  0  0  0  0  0
    9.6120   47.2391   53.4454 C   0  0  0  0  0  0  0  0  0  0  0  0
    6.6395   48.6268   54.3644 H   0  0  0  0  0  0  0  0  0  0  0  0
    5.8390   47.1253   52.5459 H   0  0  0  0  0  0  0  0  0  0  0  0
    7.7058   45.6114   50.1507 H   0  0  0  0  0  0  0  0  0  0  0  0
    1.8234   43.5456   51.1754 H   0  0  0  0  0  0  0  0  0  0  0  0
    1.1861   43.7187   52.8567 H   0  0  0  0  0  0  0  0  0  0  0  0
    2.4395   45.8018   51.0459 H   0  0  0  0  0  0  0  0  0  0  0  0
    0.8962   45.8510   52.0168 H   0  0  0  0  0  0  0  0  0  0  0  0
    3.6553   46.6031   52.7747 H   0  0  0  0  0  0  0  0  0  0  0  0
    2.0451   47.1394   53.4196 H   0  0  0  0  0  0  0  0  0  0  0  0
    3.4294   45.9563   55.1090 H   0  0  0  0  0  0  0  0  0  0  0  0
    1.8502   45.1348   54.7337 H   0  0  0  0  0  0  0  0  0  0  0  0
    4.6703   44.2761   54.0999 H   0  0  0  0  0  0  0  0  0  0  0  0
    3.2601   43.3395   54.7716 H   0  0  0  0  0  0  0  0  0  0  0  0
    2.9400   39.9536   49.3434 H   0  0  0  0  0  0  0  0  0  0  0  0
    4.8551   40.2181   47.8495 H   0  0  0  0  0  0  0  0  0  0  0  0
    9.8846   45.7725   51.8787 H   0  0  0  0  0  0  0  0  0  0  0  0
   10.6808   47.2732   53.7031 H   0  0  0  0  0  0  0  0  0  0  0  0
  1  2  1  0
  2  3  2  0
  3  4  1  0
  4  5  2  0
  5  6  1  0
  6  7  1  0
  7  8  2  0
  8  9  1  0
  9 10  1  0
 10 11  1  0
 11 12  1  0
 12 13  1  0
 13 14  1  0
 14 15  1  0
  9 16  2  0
 16 17  1  0
 17 18  2  0
 18 19  1  0
 19 20  2  0
 20 21  1  0
 21 22  2  0
  5 23  1  0
 23 24  2  0
 24  2  1  0
 22  7  1  0
 15 10  1  0
 21 16  1  0
  3 25  1  0
  4 26  1  0
  6 27  1  0
 11 28  1  0
 11 29  1  0
 12 30  1  0
 12 31  1  0
 13 32  1  0
 13 33  1  0
 14 34  1  0
 14 35  1  0
 15 36  1  0
 15 37  1  0
 18 38  1  0
 19 39  1  0
 23 40  1  0
 24 41  1  0
M  END
>  <meeko>  (6) 
{"is_sidechain": false}

>  <CID>  (6) 
Z1013695804

>  <pose_index>  (6) 
6

>  <docking_score>  (6) 
-8.347

>  <rmsd_to_best_selected>  (6) 
1.0120116333264453

>  <MWT>  (6) 
324.3629999999997

>  <TPSA>  (6) 
66.83000000000001

>  <logP>  (6) 
3.2928000000000015

>  <HBD>  (6) 
1

>  <HBA>  (6) 
6

>  <SMILES>  (6) 
[H]c1nc2nc(N([H])c3c([H])c([H])c(F)c([H])c3[H])nc(N3C([H])([H])C([H])([H])C([H])([H])C([H])([H])C3([H])[H])c2nc1[H]

$$$$
Z1013695804_pose9
     RDKit          3D

 41 44  0  0  0  0  0  0  0  0999 V2000
    8.8834   49.8782   53.7343 F   0  0  0  0  0  0  0  0  0  0  0  0
    8.5488   48.7235   53.1458 C   0  0  0  0  0  0  0  0  0  0  0  0
    9.4725   48.0680   52.3463 C   0  0  0  0  0  0  0  0  0  0  0  0
    9.1172   46.8635   51.7331 C   0  0  0  0  0  0  0  0  0  0  0  0
    7.8394   46.3016   51.9095 C   0  0  0  0  0  0  0  0  0  0  0  0
    7.5512   45.0900   51.2717 N   0  0  0  0  0  0  0  0  0  0  0  0
    6.4158   44.2940   51.1617 C   0  0  0  0  0  0  0  0  0  0  0  0
    5.1956   44.7569   51.4237 N   0  0  0  0  0  0  0  0  0  0  0  0
    4.1369   43.9277   51.2869 C   0  0  0  0  0  0  0  0  0  0  0  0
    2.8509   44.4519   51.5651 N   0  0  0  0  0  0  0  0  0  0  0  0
    2.8306   45.9052   51.7722 C   0  0  0  0  0  0  0  0  0  0  0  0
    3.3783   46.2656   53.1578 C   0  0  0  0  0  0  0  0  0  0  0  0
    2.9641   45.2714   54.2464 C   0  0  0  0  0  0  0  0  0  0  0  0
    1.7705   44.4268   53.8226 C   0  0  0  0  0  0  0  0  0  0  0  0
    2.0148   43.6847   52.5032 C   0  0  0  0  0  0  0  0  0  0  0  0
    4.2878   42.5885   50.8936 C   0  0  0  0  0  0  0  0  0  0  0  0
    3.2625   41.6817   50.7612 N   0  0  0  0  0  0  0  0  0  0  0  0
    3.5938   40.4336   50.3878 C   0  0  0  0  0  0  0  0  0  0  0  0
    4.8993   40.0862   50.1473 C   0  0  0  0  0  0  0  0  0  0  0  0
    5.9131   40.9694   50.2734 N   0  0  0  0  0  0  0  0  0  0  0  0
    5.6191   42.2194   50.6521 C   0  0  0  0  0  0  0  0  0  0  0  0
    6.6489   43.0432   50.7737 N   0  0  0  0  0  0  0  0  0  0  0  0
    6.9328   46.9883   52.7264 C   0  0  0  0  0  0  0  0  0  0  0  0
    7.2814   48.1949   53.3425 C   0  0  0  0  0  0  0  0  0  0  0  0
   10.4762   48.4923   52.1958 H   0  0  0  0  0  0  0  0  0  0  0  0
    9.8515   46.3441   51.0998 H   0  0  0  0  0  0  0  0  0  0  0  0
    8.2982   44.6661   50.7372 H   0  0  0  0  0  0  0  0  0  0  0  0
    3.4509   46.3878   51.0026 H   0  0  0  0  0  0  0  0  0  0  0  0
    1.7907   46.2567   51.7019 H   0  0  0  0  0  0  0  0  0  0  0  0
    4.4767   46.2885   53.1047 H   0  0  0  0  0  0  0  0  0  0  0  0
    2.9577   47.2445   53.4315 H   0  0  0  0  0  0  0  0  0  0  0  0
    3.8128   44.6051   54.4603 H   0  0  0  0  0  0  0  0  0  0  0  0
    2.6746   45.8456   55.1388 H   0  0  0  0  0  0  0  0  0  0  0  0
    1.5643   43.6872   54.6103 H   0  0  0  0  0  0  0  0  0  0  0  0
    0.9180   45.1053   53.6715 H   0  0  0  0  0  0  0  0  0  0  0  0
    2.5175   42.7315   52.7237 H   0  0  0  0  0  0  0  0  0  0  0  0
    1.0369   43.5284   52.0245 H   0  0  0  0  0  0  0  0  0  0  0  0
    2.8038   39.6768   50.2729 H   0  0  0  0  0  0  0  0  0  0  0  0
    5.1276   39.0544   49.8419 H   0  0  0  0  0  0  0  0  0  0  0  0
    5.9277   46.5711   52.8867 H   0  0  0  0  0  0  0  0  0  0  0  0
    6.5550   48.7213   53.9791 H   0  0  0  0  0  0  0  0  0  0  0  0
  1  2  1  0
  2  3  2  0
  3  4  1  0
  4  5  2  0
  5  6  1  0
  6  7  1  0
  7  8  2  0
  8  9  1  0
  9 10  1  0
 10 11  1  0
 11 12  1  0
 12 13  1  0
 13 14  1  0
 14 15  1  0
  9 16  2  0
 16 17  1  0
 17 18  2  0
 18 19  1  0
 19 20  2  0
 20 21  1  0
 21 22  2  0
  5 23  1  0
 23 24  2  0
 24  2  1  0
 22  7  1  0
 15 10  1  0
 21 16  1  0
  3 25  1  0
  4 26  1  0
  6 27  1  0
 11 28  1  0
 11 29  1  0
 12 30  1  0
 12 31  1  0
 13 32  1  0
 13 33  1  0
 14 34  1  0
 14 35  1  0
 15 36  1  0
 15 37  1  0
 18 38  1  0
 19 39  1  0
 23 40  1  0
 24 41  1  0
M  END
>  <meeko>  (7) 
{"is_sidechain": false}

>  <CID>  (7) 
Z1013695804

>  <pose_index>  (7) 
9

>  <docking_score>  (7) 
-8.135

>  <rmsd_to_best_selected>  (7) 
1.883261588071226

>  <MWT>  (7) 
324.3629999999997

>  <TPSA>  (7) 
66.83000000000001

>  <logP>  (7) 
3.2928000000000015

>  <HBD>  (7) 
1

>  <HBA>  (7) 
6

>  <SMILES>  (7) 
[H]c1nc2nc(N([H])c3c([H])c([H])c(F)c([H])c3[H])nc(N3C([H])([H])C([H])([H])C([H])([H])C([H])([H])C3([H])[H])c2nc1[H]

$$$$
