Z1039088436_pose1
     RDKit          3D

 48 51  0  0  0  0  0  0  0  0999 V2000
    3.2670   42.6480   51.7710 C   0  0  0  0  0  0  0  0  0  0  0  0
    3.5180   43.6240   52.6720 N   0  0  0  0  0  0  0  0  0  0  0  0
    2.5490   44.5490   52.9270 C   0  0  0  0  0  0  0  0  0  0  0  0
    2.7650   45.5510   53.8780 N   0  0  0  0  0  0  0  0  0  0  0  0
    3.1990   46.8340   53.3300 C   0  0  0  0  0  0  0  0  0  0  0  0
    4.6850   46.7600   52.9790 C   0  0  0  0  0  0  0  0  0  0  0  0
    5.5400   46.3050   54.1810 C   0  0  0  0  0  0  0  0  0  0  0  0
    7.0070   46.0890   53.7700 C   0  0  0  0  0  0  0  0  0  0  0  0
    7.6500   47.3690   53.2450 N   0  0  0  0  0  4  0  0  0  0  0  0
    8.0470   47.3160   51.7820 C   0  0  0  0  0  0  0  0  0  0  0  0
    9.5480   47.1090   51.5980 C   0  0  0  0  0  0  0  0  0  0  0  0
   10.1740   46.2960   52.7200 C   0  0  0  0  0  0  0  0  0  0  0  0
    9.9670   46.9660   54.0770 C   0  0  0  0  0  0  0  0  0  0  0  0
    8.7570   47.8930   54.1230 C   0  0  0  0  0  0  0  0  0  0  0  0
    4.9590   45.0830   54.9190 C   0  0  0  0  0  0  0  0  0  0  0  0
    3.4440   45.1590   55.1120 C   0  0  0  0  0  0  0  0  0  0  0  0
    1.3460   44.4440   52.1950 C   0  0  0  0  0  0  0  0  0  0  0  0
    0.0990   45.1330   52.1510 C   0  0  0  0  0  0  0  0  0  0  0  0
   -0.6920   44.5200   51.2030 C   0  0  0  0  0  0  0  0  0  0  0  0
    0.0210   43.4720   50.6800 N   0  0  0  0  0  0  0  0  0  0  0  0
    1.2520   43.4100   51.2760 C   0  0  0  0  0  0  0  0  0  0  0  0
    2.1810   42.4830   51.0070 N   0  0  0  0  0  0  0  0  0  0  0  0
    4.0572   41.8923   51.6504 H   0  0  0  0  0  0  0  0  0  0  0  0
    2.6187   47.0610   52.4235 H   0  0  0  0  0  0  0  0  0  0  0  0
    3.0368   47.6258   54.0761 H   0  0  0  0  0  0  0  0  0  0  0  0
    4.8203   46.0437   52.1553 H   0  0  0  0  0  0  0  0  0  0  0  0
    5.0164   47.7676   52.6878 H   0  0  0  0  0  0  0  0  0  0  0  0
    5.5110   47.1272   54.9111 H   0  0  0  0  0  0  0  0  0  0  0  0
    7.5734   45.7411   54.6464 H   0  0  0  0  0  0  0  0  0  0  0  0
    7.0261   45.3438   52.9611 H   0  0  0  0  0  0  0  0  0  0  0  0
    6.9190   48.0970   53.2830 H   0  0  0  0  0  0  0  0  0  0  0  0
    7.5131   46.4836   51.3002 H   0  0  0  0  0  0  0  0  0  0  0  0
    7.7811   48.2807   51.3252 H   0  0  0  0  0  0  0  0  0  0  0  0
    9.7159   46.5825   50.6469 H   0  0  0  0  0  0  0  0  0  0  0  0
   10.0219   48.1017   51.6049 H   0  0  0  0  0  0  0  0  0  0  0  0
    9.7118   45.2980   52.7395 H   0  0  0  0  0  0  0  0  0  0  0  0
   11.2553   46.2222   52.5320 H   0  0  0  0  0  0  0  0  0  0  0  0
    9.8323   46.1807   54.8354 H   0  0  0  0  0  0  0  0  0  0  0  0
   10.8552   47.5859   54.2691 H   0  0  0  0  0  0  0  0  0  0  0  0
    8.3941   47.9617   55.1591 H   0  0  0  0  0  0  0  0  0  0  0  0
    9.0583   48.8857   53.7572 H   0  0  0  0  0  0  0  0  0  0  0  0
    5.1922   44.1796   54.3364 H   0  0  0  0  0  0  0  0  0  0  0  0
    5.4148   45.0589   55.9198 H   0  0  0  0  0  0  0  0  0  0  0  0
    3.0738   44.1717   55.4254 H   0  0  0  0  0  0  0  0  0  0  0  0
    3.2317   45.9187   55.8787 H   0  0  0  0  0  0  0  0  0  0  0  0
   -0.1825   46.0010   52.7653 H   0  0  0  0  0  0  0  0  0  0  0  0
   -1.7117   44.8179   50.9175 H   0  0  0  0  0  0  0  0  0  0  0  0
   -0.3010   42.8170   49.9810 H   0  0  0  0  0  0  0  0  0  0  0  0
  1  2  2  0
  2  3  1  0
  3  4  1  0
  4  5  1  0
  5  6  1  0
  6  7  1  0
  7  8  1  0
  8  9  1  0
  9 10  1  0
 10 11  1  0
 11 12  1  0
 12 13  1  0
 13 14  1  0
  7 15  1  0
 15 16  1  0
  3 17  2  0
 17 18  1  0
 18 19  2  0
 19 20  1  0
 20 21  1  0
 21 22  2  0
 22  1  1  0
 16  4  1  0
 21 17  1  0
 14  9  1  0
  1 23  1  0
  5 24  1  0
  5 25  1  0
  6 26  1  0
  6 27  1  0
  7 28  1  0
  8 29  1  0
  8 30  1  0
  9 31  1  0
 10 32  1  0
 10 33  1  0
 11 34  1  0
 11 35  1  0
 12 36  1  0
 12 37  1  0
 13 38  1  0
 13 39  1  0
 14 40  1  0
 14 41  1  0
 15 42  1  0
 15 43  1  0
 16 44  1  0
 16 45  1  0
 18 46  1  0
 19 47  1  0
 20 48  1  0
M  CHG  1   9   1
M  END
>  <meeko>  (1) 
{"is_sidechain": false}

>  <CID>  (1) 
Z1039088436

>  <pose_index>  (1) 
1

>  <docking_score>  (1) 
-8.479

>  <rmsd_to_best_selected>  (1) 
0.0

>  <MWT>  (1) 
300.4299999999995

>  <TPSA>  (1) 
49.25

>  <logP>  (1) 
1.2430999999999994

>  <HBD>  (1) 
2

>  <HBA>  (1) 
3

>  <SMILES>  (1) 
[H]c1nc(N2C([H])([H])C([H])([H])C([H])(C([H])([H])[N+]3([H])C([H])([H])C([H])([H])C([H])([H])C([H])([H])C3([H])[H])C([H])([H])C2([H])[H])c2c([H])c([H])n([H])c2n1

$$$$
Z1039088436_pose2
     RDKit          3D

 48 51  0  0  0  0  0  0  0  0999 V2000
    2.6141   43.8324   50.4865 C   0  0  0  0  0  0  0  0  0  0  0  0
    3.1226   44.6932   51.3964 N   0  0  0  0  0  0  0  0  0  0  0  0
    2.4068   44.9544   52.5273 C   0  0  0  0  0  0  0  0  0  0  0  0
    2.9210   45.8138   53.5030 N   0  0  0  0  0  0  0  0  0  0  0  0
    3.3497   47.1195   53.0062 C   0  0  0  0  0  0  0  0  0  0  0  0
    4.7099   46.9806   52.3228 C   0  0  0  0  0  0  0  0  0  0  0  0
    5.7560   46.3214   53.2468 C   0  0  0  0  0  0  0  0  0  0  0  0
    7.0704   46.0505   52.4951 C   0  0  0  0  0  0  0  0  0  0  0  0
    7.9796   47.2761   52.4705 N   0  0  0  0  0  4  0  0  0  0  0  0
    9.3345   47.0372   51.8294 C   0  0  0  0  0  0  0  0  0  0  0  0
   10.4443   46.8829   52.8651 C   0  0  0  0  0  0  0  0  0  0  0  0
    9.9564   46.2699   54.1683 C   0  0  0  0  0  0  0  0  0  0  0  0
    8.8521   47.1125   54.8020 C   0  0  0  0  0  0  0  0  0  0  0  0
    8.0885   47.9736   53.8011 C   0  0  0  0  0  0  0  0  0  0  0  0
    5.2306   45.0633   53.9674 C   0  0  0  0  0  0  0  0  0  0  0  0
    3.8077   45.2257   54.5038 C   0  0  0  0  0  0  0  0  0  0  0  0
    1.1482   44.3279   52.6541 C   0  0  0  0  0  0  0  0  0  0  0  0
    0.1116   44.2794   53.6323 C   0  0  0  0  0  0  0  0  0  0  0  0
   -0.8853   43.4553   53.1542 C   0  0  0  0  0  0  0  0  0  0  0  0
   -0.4852   42.9864   51.9292 N   0  0  0  0  0  0  0  0  0  0  0  0
    0.7448   43.4999   51.6182 C   0  0  0  0  0  0  0  0  0  0  0  0
    1.4258   43.2183   50.4995 N   0  0  0  0  0  0  0  0  0  0  0  0
    3.2603   43.6083   49.6251 H   0  0  0  0  0  0  0  0  0  0  0  0
    2.6123   47.4971   52.2826 H   0  0  0  0  0  0  0  0  0  0  0  0
    3.4310   47.8241   53.8470 H   0  0  0  0  0  0  0  0  0  0  0  0
    4.5927   46.3621   51.4207 H   0  0  0  0  0  0  0  0  0  0  0  0
    5.0677   47.9894   52.0694 H   0  0  0  0  0  0  0  0  0  0  0  0
    5.9669   47.0484   54.0449 H   0  0  0  0  0  0  0  0  0  0  0  0
    7.6005   45.2253   52.9931 H   0  0  0  0  0  0  0  0  0  0  0  0
    6.8197   45.7933   51.4553 H   0  0  0  0  0  0  0  0  0  0  0  0
    7.5239   47.9622   51.8508 H   0  0  0  0  0  0  0  0  0  0  0  0
    9.2835   46.1190   51.2257 H   0  0  0  0  0  0  0  0  0  0  0  0
    9.5726   47.9130   51.2079 H   0  0  0  0  0  0  0  0  0  0  0  0
   11.2289   46.2363   52.4451 H   0  0  0  0  0  0  0  0  0  0  0  0
   10.8233   47.8896   53.0952 H   0  0  0  0  0  0  0  0  0  0  0  0
    9.5655   45.2620   53.9653 H   0  0  0  0  0  0  0  0  0  0  0  0
   10.8035   46.2267   54.8687 H   0  0  0  0  0  0  0  0  0  0  0  0
    8.1380   46.4359   55.2943 H   0  0  0  0  0  0  0  0  0  0  0  0
    9.3377   47.7981   55.5120 H   0  0  0  0  0  0  0  0  0  0  0  0
    7.0782   48.1688   54.1899 H   0  0  0  0  0  0  0  0  0  0  0  0
    8.6333   48.9189   53.6606 H   0  0  0  0  0  0  0  0  0  0  0  0
    5.2427   44.2233   53.2574 H   0  0  0  0  0  0  0  0  0  0  0  0
    5.8869   44.8838   54.8316 H   0  0  0  0  0  0  0  0  0  0  0  0
    3.4185   44.2371   54.7890 H   0  0  0  0  0  0  0  0  0  0  0  0
    3.8416   45.8994   55.3726 H   0  0  0  0  0  0  0  0  0  0  0  0
    0.1079   44.8063   54.5979 H   0  0  0  0  0  0  0  0  0  0  0  0
   -1.8308   43.2170   53.6635 H   0  0  0  0  0  0  0  0  0  0  0  0
   -0.9920   42.3401   51.3398 H   0  0  0  0  0  0  0  0  0  0  0  0
  1  2  2  0
  2  3  1  0
  3  4  1  0
  4  5  1  0
  5  6  1  0
  6  7  1  0
  7  8  1  0
  8  9  1  0
  9 10  1  0
 10 11  1  0
 11 12  1  0
 12 13  1  0
 13 14  1  0
  7 15  1  0
 15 16  1  0
  3 17  2  0
 17 18  1  0
 18 19  2  0
 19 20  1  0
 20 21  1  0
 21 22  2  0
 22  1  1  0
 16  4  1  0
 21 17  1  0
 14  9  1  0
  1 23  1  0
  5 24  1  0
  5 25  1  0
  6 26  1  0
  6 27  1  0
  7 28  1  0
  8 29  1  0
  8 30  1  0
  9 31  1  0
 10 32  1  0
 10 33  1  0
 11 34  1  0
 11 35  1  0
 12 36  1  0
 12 37  1  0
 13 38  1  0
 13 39  1  0
 14 40  1  0
 14 41  1  0
 15 42  1  0
 15 43  1  0
 16 44  1  0
 16 45  1  0
 18 46  1  0
 19 47  1  0
 20 48  1  0
M  CHG  1   9   1
M  END
>  <meeko>  (2) 
{"is_sidechain": false}

>  <CID>  (2) 
Z1039088436

>  <pose_index>  (2) 
2

>  <docking_score>  (2) 
-8.434

>  <rmsd_to_best_selected>  (2) 
1.478174261977005

>  <MWT>  (2) 
300.4299999999995

>  <TPSA>  (2) 
49.25

>  <logP>  (2) 
1.2430999999999994

>  <HBD>  (2) 
2

>  <HBA>  (2) 
3

>  <SMILES>  (2) 
[H]c1nc(N2C([H])([H])C([H])([H])C([H])(C([H])([H])[N+]3([H])C([H])([H])C([H])([H])C([H])([H])C([H])([H])C3([H])[H])C([H])([H])C2([H])[H])c2c([H])c([H])n([H])c2n1

$$$$
Z1039088436_pose3
     RDKit          3D

 48 51  0  0  0  0  0  0  0  0999 V2000
    2.9225   43.9537   50.4142 C   0  0  0  0  0  0  0  0  0  0  0  0
    3.2214   44.8579   51.3723 N   0  0  0  0  0  0  0  0  0  0  0  0
    2.3833   44.9853   52.4419 C   0  0  0  0  0  0  0  0  0  0  0  0
    2.6816   45.8879   53.4670 N   0  0  0  0  0  0  0  0  0  0  0  0
    3.0043   47.2409   53.0188 C   0  0  0  0  0  0  0  0  0  0  0  0
    4.4371   47.2725   52.4894 C   0  0  0  0  0  0  0  0  0  0  0  0
    5.4475   46.7305   53.5214 C   0  0  0  0  0  0  0  0  0  0  0  0
    6.8593   46.6267   52.9184 C   0  0  0  0  0  0  0  0  0  0  0  0
    7.9471   46.7679   53.9782 N   0  0  0  0  0  4  0  0  0  0  0  0
    8.6211   48.1269   54.0065 C   0  0  0  0  0  0  0  0  0  0  0  0
    9.9974   48.1037   53.3468 C   0  0  0  0  0  0  0  0  0  0  0  0
   10.0974   47.0839   52.2238 C   0  0  0  0  0  0  0  0  0  0  0  0
    9.8039   45.6711   52.7240 C   0  0  0  0  0  0  0  0  0  0  0  0
    8.9398   45.6337   53.9795 C   0  0  0  0  0  0  0  0  0  0  0  0
    5.0006   45.4108   54.1814 C   0  0  0  0  0  0  0  0  0  0  0  0
    3.5192   45.3964   54.5593 C   0  0  0  0  0  0  0  0  0  0  0  0
    1.2261   44.1773   52.4542 C   0  0  0  0  0  0  0  0  0  0  0  0
    0.1316   43.9534   53.3404 C   0  0  0  0  0  0  0  0  0  0  0  0
   -0.6896   43.0040   52.7699 C   0  0  0  0  0  0  0  0  0  0  0  0
   -0.1257   42.6279   51.5784 N   0  0  0  0  0  0  0  0  0  0  0  0
    1.0362   43.3242   51.3783 C   0  0  0  0  0  0  0  0  0  0  0  0
    1.8411   43.1714   50.3187 N   0  0  0  0  0  0  0  0  0  0  0  0
    3.6638   43.8467   49.6085 H   0  0  0  0  0  0  0  0  0  0  0  0
    2.3106   47.5374   52.2182 H   0  0  0  0  0  0  0  0  0  0  0  0
    2.9092   47.9398   53.8630 H   0  0  0  0  0  0  0  0  0  0  0  0
    4.4932   46.6561   51.5800 H   0  0  0  0  0  0  0  0  0  0  0  0
    4.6975   48.3200   52.2771 H   0  0  0  0  0  0  0  0  0  0  0  0
    5.4826   47.4679   54.3369 H   0  0  0  0  0  0  0  0  0  0  0  0
    6.9651   45.6470   52.4296 H   0  0  0  0  0  0  0  0  0  0  0  0
    6.9807   47.4478   52.1965 H   0  0  0  0  0  0  0  0  0  0  0  0
    7.4724   46.7016   54.8912 H   0  0  0  0  0  0  0  0  0  0  0  0
    7.9850   48.8486   53.4731 H   0  0  0  0  0  0  0  0  0  0  0  0
    8.7571   48.4137   55.0597 H   0  0  0  0  0  0  0  0  0  0  0  0
   10.2058   49.1018   52.9342 H   0  0  0  0  0  0  0  0  0  0  0  0
   10.7285   47.8188   54.1177 H   0  0  0  0  0  0  0  0  0  0  0  0
    9.3713   47.3435   51.4393 H   0  0  0  0  0  0  0  0  0  0  0  0
   11.1239   47.1044   51.8289 H   0  0  0  0  0  0  0  0  0  0  0  0
    9.2822   45.1215   51.9267 H   0  0  0  0  0  0  0  0  0  0  0  0
   10.7702   45.2146   52.9846 H   0  0  0  0  0  0  0  0  0  0  0  0
    8.3961   44.6781   54.0151 H   0  0  0  0  0  0  0  0  0  0  0  0
    9.5914   45.7356   54.8599 H   0  0  0  0  0  0  0  0  0  0  0  0
    5.1898   44.5867   53.4778 H   0  0  0  0  0  0  0  0  0  0  0  0
    5.5760   45.3003   55.1124 H   0  0  0  0  0  0  0  0  0  0  0  0
    3.2222   44.3652   54.8009 H   0  0  0  0  0  0  0  0  0  0  0  0
    3.3783   46.0586   55.4262 H   0  0  0  0  0  0  0  0  0  0  0  0
   -0.0292   44.4505   54.3084 H   0  0  0  0  0  0  0  0  0  0  0  0
   -1.6281   42.6180   53.1944 H   0  0  0  0  0  0  0  0  0  0  0  0
   -0.4805   41.9277   50.9412 H   0  0  0  0  0  0  0  0  0  0  0  0
  1  2  2  0
  2  3  1  0
  3  4  1  0
  4  5  1  0
  5  6  1  0
  6  7  1  0
  7  8  1  0
  8  9  1  0
  9 10  1  0
 10 11  1  0
 11 12  1  0
 12 13  1  0
 13 14  1  0
  7 15  1  0
 15 16  1  0
  3 17  2  0
 17 18  1  0
 18 19  2  0
 19 20  1  0
 20 21  1  0
 21 22  2  0
 22  1  1  0
 16  4  1  0
 21 17  1  0
 14  9  1  0
  1 23  1  0
  5 24  1  0
  5 25  1  0
  6 26  1  0
  6 27  1  0
  7 28  1  0
  8 29  1  0
  8 30  1  0
  9 31  1  0
 10 32  1  0
 10 33  1  0
 11 34  1  0
 11 35  1  0
 12 36  1  0
 12 37  1  0
 13 38  1  0
 13 39  1  0
 14 40  1  0
 14 41  1  0
 15 42  1  0
 15 43  1  0
 16 44  1  0
 16 45  1  0
 18 46  1  0
 19 47  1  0
 20 48  1  0
M  CHG  1   9   1
M  END
>  <meeko>  (3) 
{"is_sidechain": false}

>  <CID>  (3) 
Z1039088436

>  <pose_index>  (3) 
3

>  <docking_score>  (3) 
-8.38

>  <rmsd_to_best_selected>  (3) 
1.729543196098029

>  <MWT>  (3) 
300.4299999999995

>  <TPSA>  (3) 
49.25

>  <logP>  (3) 
1.2430999999999994

>  <HBD>  (3) 
2

>  <HBA>  (3) 
3

>  <SMILES>  (3) 
[H]c1nc(N2C([H])([H])C([H])([H])C([H])(C([H])([H])[N+]3([H])C([H])([H])C([H])([H])C([H])([H])C([H])([H])C3([H])[H])C([H])([H])C2([H])[H])c2c([H])c([H])n([H])c2n1

$$$$
Z1039088436_pose4
     RDKit          3D

 48 51  0  0  0  0  0  0  0  0999 V2000
    3.0270   43.8114   50.3483 C   0  0  0  0  0  0  0  0  0  0  0  0
    3.4398   44.8152   51.1531 N   0  0  0  0  0  0  0  0  0  0  0  0
    2.6327   45.2102   52.1795 C   0  0  0  0  0  0  0  0  0  0  0  0
    3.0447   46.2229   53.0494 N   0  0  0  0  0  0  0  0  0  0  0  0
    3.9909   47.1779   52.4764 C   0  0  0  0  0  0  0  0  0  0  0  0
    5.3856   46.5528   52.4429 C   0  0  0  0  0  0  0  0  0  0  0  0
    5.8231   46.0412   53.8312 C   0  0  0  0  0  0  0  0  0  0  0  0
    7.1583   45.2810   53.7487 C   0  0  0  0  0  0  0  0  0  0  0  0
    8.3181   46.0981   54.3096 N   0  0  0  0  0  4  0  0  0  0  0  0
    8.0170   47.5746   54.4865 C   0  0  0  0  0  0  0  0  0  0  0  0
    8.6365   48.4273   53.3825 C   0  0  0  0  0  0  0  0  0  0  0  0
    8.7388   47.6913   52.0550 C   0  0  0  0  0  0  0  0  0  0  0  0
    9.5808   46.4242   52.1822 C   0  0  0  0  0  0  0  0  0  0  0  0
    9.6255   45.8593   53.5982 C   0  0  0  0  0  0  0  0  0  0  0  0
    4.7345   45.2242   54.5540 C   0  0  0  0  0  0  0  0  0  0  0  0
    3.3379   45.8342   54.4278 C   0  0  0  0  0  0  0  0  0  0  0  0
    1.3877   44.5575   52.3102 C   0  0  0  0  0  0  0  0  0  0  0  0
    0.2828   44.6091   53.2087 C   0  0  0  0  0  0  0  0  0  0  0  0
   -0.6495   43.6838   52.7899 C   0  0  0  0  0  0  0  0  0  0  0  0
   -0.1460   43.0581   51.6795 N   0  0  0  0  0  0  0  0  0  0  0  0
    1.0882   43.5717   51.3823 C   0  0  0  0  0  0  0  0  0  0  0  0
    1.8601   43.1570   50.3684 N   0  0  0  0  0  0  0  0  0  0  0  0
    3.7427   43.4907   49.5769 H   0  0  0  0  0  0  0  0  0  0  0  0
    3.6791   47.4346   51.4532 H   0  0  0  0  0  0  0  0  0  0  0  0
    4.0113   48.0893   53.0920 H   0  0  0  0  0  0  0  0  0  0  0  0
    5.3792   45.7077   51.7388 H   0  0  0  0  0  0  0  0  0  0  0  0
    6.0983   47.3288   52.1267 H   0  0  0  0  0  0  0  0  0  0  0  0
    5.9804   46.9334   54.4551 H   0  0  0  0  0  0  0  0  0  0  0  0
    7.0712   44.3473   54.3237 H   0  0  0  0  0  0  0  0  0  0  0  0
    7.3681   45.0778   52.6882 H   0  0  0  0  0  0  0  0  0  0  0  0
    8.4765   45.7559   55.2693 H   0  0  0  0  0  0  0  0  0  0  0  0
    6.9264   47.7175   54.4742 H   0  0  0  0  0  0  0  0  0  0  0  0
    8.4527   47.8950   55.4444 H   0  0  0  0  0  0  0  0  0  0  0  0
    8.0148   49.3235   53.2403 H   0  0  0  0  0  0  0  0  0  0  0  0
    9.6585   48.6847   53.6976 H   0  0  0  0  0  0  0  0  0  0  0  0
    7.7278   47.4166   51.7195 H   0  0  0  0  0  0  0  0  0  0  0  0
    9.2249   48.3575   51.3271 H   0  0  0  0  0  0  0  0  0  0  0  0
    9.1586   45.6579   51.5155 H   0  0  0  0  0  0  0  0  0  0  0  0
   10.6120   46.6939   51.9103 H   0  0  0  0  0  0  0  0  0  0  0  0
    9.8174   44.7773   53.5493 H   0  0  0  0  0  0  0  0  0  0  0  0
   10.4281   46.3649   54.1551 H   0  0  0  0  0  0  0  0  0  0  0  0
    4.7138   44.2121   54.1235 H   0  0  0  0  0  0  0  0  0  0  0  0
    4.9906   45.2140   55.6237 H   0  0  0  0  0  0  0  0  0  0  0  0
    2.5936   45.0938   54.7563 H   0  0  0  0  0  0  0  0  0  0  0  0
    3.2975   46.7360   55.0564 H   0  0  0  0  0  0  0  0  0  0  0  0
    0.1901   45.2708   54.0826 H   0  0  0  0  0  0  0  0  0  0  0  0
   -1.6227   43.4837   53.2622 H   0  0  0  0  0  0  0  0  0  0  0  0
   -0.5875   42.3124   51.1585 H   0  0  0  0  0  0  0  0  0  0  0  0
  1  2  2  0
  2  3  1  0
  3  4  1  0
  4  5  1  0
  5  6  1  0
  6  7  1  0
  7  8  1  0
  8  9  1  0
  9 10  1  0
 10 11  1  0
 11 12  1  0
 12 13  1  0
 13 14  1  0
  7 15  1  0
 15 16  1  0
  3 17  2  0
 17 18  1  0
 18 19  2  0
 19 20  1  0
 20 21  1  0
 21 22  2  0
 22  1  1  0
 16  4  1  0
 21 17  1  0
 14  9  1  0
  1 23  1  0
  5 24  1  0
  5 25  1  0
  6 26  1  0
  6 27  1  0
  7 28  1  0
  8 29  1  0
  8 30  1  0
  9 31  1  0
 10 32  1  0
 10 33  1  0
 11 34  1  0
 11 35  1  0
 12 36  1  0
 12 37  1  0
 13 38  1  0
 13 39  1  0
 14 40  1  0
 14 41  1  0
 15 42  1  0
 15 43  1  0
 16 44  1  0
 16 45  1  0
 18 46  1  0
 19 47  1  0
 20 48  1  0
M  CHG  1   9   1
M  END
>  <meeko>  (4) 
{"is_sidechain": false}

>  <CID>  (4) 
Z1039088436

>  <pose_index>  (4) 
4

>  <docking_score>  (4) 
-8.219

>  <rmsd_to_best_selected>  (4) 
1.8628289595878813

>  <MWT>  (4) 
300.4299999999995

>  <TPSA>  (4) 
49.25

>  <logP>  (4) 
1.2430999999999994

>  <HBD>  (4) 
2

>  <HBA>  (4) 
3

>  <SMILES>  (4) 
[H]c1nc(N2C([H])([H])C([H])([H])C([H])(C([H])([H])[N+]3([H])C([H])([H])C([H])([H])C([H])([H])C([H])([H])C3([H])[H])C([H])([H])C2([H])[H])c2c([H])c([H])n([H])c2n1

$$$$
Z1039088436_pose5
     RDKit          3D

 48 51  0  0  0  0  0  0  0  0999 V2000
    3.1114   43.4846   50.6806 C   0  0  0  0  0  0  0  0  0  0  0  0
    3.5222   44.4692   51.5085 N   0  0  0  0  0  0  0  0  0  0  0  0
    2.6204   45.0303   52.3640 C   0  0  0  0  0  0  0  0  0  0  0  0
    3.0223   46.0276   53.2576 N   0  0  0  0  0  0  0  0  0  0  0  0
    3.8621   47.0712   52.6749 C   0  0  0  0  0  0  0  0  0  0  0  0
    5.2896   46.5473   52.5208 C   0  0  0  0  0  0  0  0  0  0  0  0
    5.8519   46.0024   53.8503 C   0  0  0  0  0  0  0  0  0  0  0  0
    7.2259   45.3420   53.6451 C   0  0  0  0  0  0  0  0  0  0  0  0
    8.3580   46.1752   54.2382 N   0  0  0  0  0  4  0  0  0  0  0  0
    8.0331   47.6499   54.3967 C   0  0  0  0  0  0  0  0  0  0  0  0
    8.6773   48.5028   53.3076 C   0  0  0  0  0  0  0  0  0  0  0  0
    8.8310   47.7618   51.9894 C   0  0  0  0  0  0  0  0  0  0  0  0
    9.6832   46.5051   52.1507 C   0  0  0  0  0  0  0  0  0  0  0  0
    9.6891   45.9483   53.5709 C   0  0  0  0  0  0  0  0  0  0  0  0
    4.8698   45.0785   54.5983 C   0  0  0  0  0  0  0  0  0  0  0  0
    3.4312   45.5959   54.5925 C   0  0  0  0  0  0  0  0  0  0  0  0
    1.2897   44.5615   52.2978 C   0  0  0  0  0  0  0  0  0  0  0  0
    0.0683   44.8158   52.9890 C   0  0  0  0  0  0  0  0  0  0  0  0
   -0.9036   44.0026   52.4456 C   0  0  0  0  0  0  0  0  0  0  0  0
   -0.3147   43.2488   51.4627 N   0  0  0  0  0  0  0  0  0  0  0  0
    1.0122   43.5719   51.3676 C   0  0  0  0  0  0  0  0  0  0  0  0
    1.8746   42.9973   50.5191 N   0  0  0  0  0  0  0  0  0  0  0  0
    3.8932   43.0236   50.0590 H   0  0  0  0  0  0  0  0  0  0  0  0
    3.4660   47.3525   51.6880 H   0  0  0  0  0  0  0  0  0  0  0  0
    3.8633   47.9522   53.3335 H   0  0  0  0  0  0  0  0  0  0  0  0
    5.2925   45.7381   51.7757 H   0  0  0  0  0  0  0  0  0  0  0  0
    5.9263   47.3852   52.2005 H   0  0  0  0  0  0  0  0  0  0  0  0
    5.9914   46.8732   54.5078 H   0  0  0  0  0  0  0  0  0  0  0  0
    7.2207   44.3546   54.1300 H   0  0  0  0  0  0  0  0  0  0  0  0
    7.4012   45.2543   52.5627 H   0  0  0  0  0  0  0  0  0  0  0  0
    8.4884   45.8400   55.2046 H   0  0  0  0  0  0  0  0  0  0  0  0
    6.9418   47.7792   54.3487 H   0  0  0  0  0  0  0  0  0  0  0  0
    8.4334   47.9815   55.3661 H   0  0  0  0  0  0  0  0  0  0  0  0
    8.0499   49.3907   53.1400 H   0  0  0  0  0  0  0  0  0  0  0  0
    9.6858   48.7735   53.6536 H   0  0  0  0  0  0  0  0  0  0  0  0
    7.8346   47.4735   51.6231 H   0  0  0  0  0  0  0  0  0  0  0  0
    9.3327   48.4299   51.2740 H   0  0  0  0  0  0  0  0  0  0  0  0
    9.2915   45.7304   51.4751 H   0  0  0  0  0  0  0  0  0  0  0  0
   10.7194   46.7855   51.9102 H   0  0  0  0  0  0  0  0  0  0  0  0
    9.8950   44.8683   53.5343 H   0  0  0  0  0  0  0  0  0  0  0  0
   10.4676   46.4662   54.1502 H   0  0  0  0  0  0  0  0  0  0  0  0
    4.8871   44.0888   54.1186 H   0  0  0  0  0  0  0  0  0  0  0  0
    5.1969   45.0356   55.6476 H   0  0  0  0  0  0  0  0  0  0  0  0
    2.7607   44.7913   54.9288 H   0  0  0  0  0  0  0  0  0  0  0  0
    3.3733   46.4620   55.2680 H   0  0  0  0  0  0  0  0  0  0  0  0
   -0.0733   45.5337   53.8104 H   0  0  0  0  0  0  0  0  0  0  0  0
   -1.9611   43.9651   52.7463 H   0  0  0  0  0  0  0  0  0  0  0  0
   -0.7655   42.5410   50.8998 H   0  0  0  0  0  0  0  0  0  0  0  0
  1  2  2  0
  2  3  1  0
  3  4  1  0
  4  5  1  0
  5  6  1  0
  6  7  1  0
  7  8  1  0
  8  9  1  0
  9 10  1  0
 10 11  1  0
 11 12  1  0
 12 13  1  0
 13 14  1  0
  7 15  1  0
 15 16  1  0
  3 17  2  0
 17 18  1  0
 18 19  2  0
 19 20  1  0
 20 21  1  0
 21 22  2  0
 22  1  1  0
 16  4  1  0
 21 17  1  0
 14  9  1  0
  1 23  1  0
  5 24  1  0
  5 25  1  0
  6 26  1  0
  6 27  1  0
  7 28  1  0
  8 29  1  0
  8 30  1  0
  9 31  1  0
 10 32  1  0
 10 33  1  0
 11 34  1  0
 11 35  1  0
 12 36  1  0
 12 37  1  0
 13 38  1  0
 13 39  1  0
 14 40  1  0
 14 41  1  0
 15 42  1  0
 15 43  1  0
 16 44  1  0
 16 45  1  0
 18 46  1  0
 19 47  1  0
 20 48  1  0
M  CHG  1   9   1
M  END
>  <meeko>  (5) 
{"is_sidechain": false}

>  <CID>  (5) 
Z1039088436

>  <pose_index>  (5) 
5

>  <docking_score>  (5) 
-8.118

>  <rmsd_to_best_selected>  (5) 
1.7375135711950578

>  <MWT>  (5) 
300.4299999999995

>  <TPSA>  (5) 
49.25

>  <logP>  (5) 
1.2430999999999994

>  <HBD>  (5) 
2

>  <HBA>  (5) 
3

>  <SMILES>  (5) 
[H]c1nc(N2C([H])([H])C([H])([H])C([H])(C([H])([H])[N+]3([H])C([H])([H])C([H])([H])C([H])([H])C([H])([H])C3([H])[H])C([H])([H])C2([H])[H])c2c([H])c([H])n([H])c2n1

$$$$
Z1039088436_pose6
     RDKit          3D

 48 51  0  0  0  0  0  0  0  0999 V2000
    3.7990   43.3579   51.2657 C   0  0  0  0  0  0  0  0  0  0  0  0
    3.8511   44.4584   52.0471 N   0  0  0  0  0  0  0  0  0  0  0  0
    2.7140   44.8733   52.6762 C   0  0  0  0  0  0  0  0  0  0  0  0
    2.7430   45.9893   53.5180 N   0  0  0  0  0  0  0  0  0  0  0  0
    2.8379   47.2749   52.8308 C   0  0  0  0  0  0  0  0  0  0  0  0
    4.2797   47.5026   52.3781 C   0  0  0  0  0  0  0  0  0  0  0  0
    5.2797   47.3751   53.5468 C   0  0  0  0  0  0  0  0  0  0  0  0
    6.7328   47.4560   53.0467 C   0  0  0  0  0  0  0  0  0  0  0  0
    7.6257   46.4129   53.7121 N   0  0  0  0  0  4  0  0  0  0  0  0
    8.6569   46.9888   54.6651 C   0  0  0  0  0  0  0  0  0  0  0  0
   10.0536   47.0294   54.0492 C   0  0  0  0  0  0  0  0  0  0  0  0
   10.0288   47.2224   52.5412 C   0  0  0  0  0  0  0  0  0  0  0  0
    9.2547   46.1032   51.8478 C   0  0  0  0  0  0  0  0  0  0  0  0
    8.2254   45.4254   52.7449 C   0  0  0  0  0  0  0  0  0  0  0  0
    5.0372   46.1352   54.4285 C   0  0  0  0  0  0  0  0  0  0  0  0
    3.5584   45.8868   54.7274 C   0  0  0  0  0  0  0  0  0  0  0  0
    1.5357   44.1335   52.4354 C   0  0  0  0  0  0  0  0  0  0  0  0
    0.1818   44.1723   52.8809 C   0  0  0  0  0  0  0  0  0  0  0  0
   -0.4957   43.1403   52.2680 C   0  0  0  0  0  0  0  0  0  0  0  0
    0.3988   42.4641   51.4800 N   0  0  0  0  0  0  0  0  0  0  0  0
    1.6318   43.0497   51.5775 C   0  0  0  0  0  0  0  0  0  0  0  0
    2.7320   42.6139   50.9500 N   0  0  0  0  0  0  0  0  0  0  0  0
    4.7563   43.0311   50.8333 H   0  0  0  0  0  0  0  0  0  0  0  0
    2.1738   47.2723   51.9539 H   0  0  0  0  0  0  0  0  0  0  0  0
    2.5359   48.0811   53.5156 H   0  0  0  0  0  0  0  0  0  0  0  0
    4.5330   46.7562   51.6109 H   0  0  0  0  0  0  0  0  0  0  0  0
    4.3528   48.5248   51.9784 H   0  0  0  0  0  0  0  0  0  0  0  0
    5.1005   48.2386   54.2042 H   0  0  0  0  0  0  0  0  0  0  0  0
    6.7437   47.2910   51.9592 H   0  0  0  0  0  0  0  0  0  0  0  0
    7.1249   48.4514   53.3024 H   0  0  0  0  0  0  0  0  0  0  0  0
    7.0112   45.8477   54.3169 H   0  0  0  0  0  0  0  0  0  0  0  0
    8.3582   48.0129   54.9333 H   0  0  0  0  0  0  0  0  0  0  0  0
    8.6978   46.3383   55.5512 H   0  0  0  0  0  0  0  0  0  0  0  0
   10.6123   47.8625   54.5007 H   0  0  0  0  0  0  0  0  0  0  0  0
   10.5319   46.0596   54.2506 H   0  0  0  0  0  0  0  0  0  0  0  0
    9.5486   48.1850   52.3115 H   0  0  0  0  0  0  0  0  0  0  0  0
   11.0654   47.2051   52.1734 H   0  0  0  0  0  0  0  0  0  0  0  0
    8.7317   46.5290   50.9788 H   0  0  0  0  0  0  0  0  0  0  0  0
    9.9874   45.3348   51.5604 H   0  0  0  0  0  0  0  0  0  0  0  0
    7.4256   45.0016   52.1199 H   0  0  0  0  0  0  0  0  0  0  0  0
    8.7258   44.6305   53.3175 H   0  0  0  0  0  0  0  0  0  0  0  0
    5.4417   45.2534   53.9102 H   0  0  0  0  0  0  0  0  0  0  0  0
    5.5386   46.3161   55.3907 H   0  0  0  0  0  0  0  0  0  0  0  0
    3.4439   44.8783   55.1514 H   0  0  0  0  0  0  0  0  0  0  0  0
    3.2168   46.6521   55.4400 H   0  0  0  0  0  0  0  0  0  0  0  0
   -0.2462   44.8976   53.5885 H   0  0  0  0  0  0  0  0  0  0  0  0
   -1.5628   42.9022   52.3895 H   0  0  0  0  0  0  0  0  0  0  0  0
    0.2067   41.6413   50.9243 H   0  0  0  0  0  0  0  0  0  0  0  0
  1  2  2  0
  2  3  1  0
  3  4  1  0
  4  5  1  0
  5  6  1  0
  6  7  1  0
  7  8  1  0
  8  9  1  0
  9 10  1  0
 10 11  1  0
 11 12  1  0
 12 13  1  0
 13 14  1  0
  7 15  1  0
 15 16  1  0
  3 17  2  0
 17 18  1  0
 18 19  2  0
 19 20  1  0
 20 21  1  0
 21 22  2  0
 22  1  1  0
 16  4  1  0
 21 17  1  0
 14  9  1  0
  1 23  1  0
  5 24  1  0
  5 25  1  0
  6 26  1  0
  6 27  1  0
  7 28  1  0
  8 29  1  0
  8 30  1  0
  9 31  1  0
 10 32  1  0
 10 33  1  0
 11 34  1  0
 11 35  1  0
 12 36  1  0
 12 37  1  0
 13 38  1  0
 13 39  1  0
 14 40  1  0
 14 41  1  0
 15 42  1  0
 15 43  1  0
 16 44  1  0
 16 45  1  0
 18 46  1  0
 19 47  1  0
 20 48  1  0
M  CHG  1   9   1
M  END
>  <meeko>  (6) 
{"is_sidechain": false}

>  <CID>  (6) 
Z1039088436

>  <pose_index>  (6) 
6

>  <docking_score>  (6) 
-7.961

>  <rmsd_to_best_selected>  (6) 
1.4828947747845236

>  <MWT>  (6) 
300.4299999999995

>  <TPSA>  (6) 
49.25

>  <logP>  (6) 
1.2430999999999994

>  <HBD>  (6) 
2

>  <HBA>  (6) 
3

>  <SMILES>  (6) 
[H]c1nc(N2C([H])([H])C([H])([H])C([H])(C([H])([H])[N+]3([H])C([H])([H])C([H])([H])C([H])([H])C([H])([H])C3([H])[H])C([H])([H])C2([H])[H])c2c([H])c([H])n([H])c2n1

$$$$
Z1039088436_pose7
     RDKit          3D

 48 51  0  0  0  0  0  0  0  0999 V2000
    4.0202   43.9633   50.8393 C   0  0  0  0  0  0  0  0  0  0  0  0
    3.9279   45.0374   51.6534 N   0  0  0  0  0  0  0  0  0  0  0  0
    2.8433   45.1518   52.4724 C   0  0  0  0  0  0  0  0  0  0  0  0
    2.7356   46.2338   53.3513 N   0  0  0  0  0  0  0  0  0  0  0  0
    3.2121   47.5073   52.8183 C   0  0  0  0  0  0  0  0  0  0  0  0
    4.7402   47.5383   52.8690 C   0  0  0  0  0  0  0  0  0  0  0  0
    5.2771   47.2472   54.2859 C   0  0  0  0  0  0  0  0  0  0  0  0
    6.8114   47.1312   54.2868 C   0  0  0  0  0  0  0  0  0  0  0  0
    7.3924   47.1972   52.8774 N   0  0  0  0  0  4  0  0  0  0  0  0
    7.4919   45.8539   52.1776 C   0  0  0  0  0  0  0  0  0  0  0  0
    8.9169   45.3078   52.1749 C   0  0  0  0  0  0  0  0  0  0  0  0
    9.7166   45.7379   53.3949 C   0  0  0  0  0  0  0  0  0  0  0  0
    9.8088   47.2594   53.4949 C   0  0  0  0  0  0  0  0  0  0  0  0
    8.6708   47.9881   52.7867 C   0  0  0  0  0  0  0  0  0  0  0  0
    4.6039   46.0338   54.9582 C   0  0  0  0  0  0  0  0  0  0  0  0
    3.0902   45.9909   54.7480 C   0  0  0  0  0  0  0  0  0  0  0  0
    1.8592   44.1433   52.3856 C   0  0  0  0  0  0  0  0  0  0  0  0
    0.6290   43.8397   53.0387 C   0  0  0  0  0  0  0  0  0  0  0  0
    0.1336   42.6755   52.4916 C   0  0  0  0  0  0  0  0  0  0  0  0
    1.0247   42.2487   51.5426 N   0  0  0  0  0  0  0  0  0  0  0  0
    2.0769   43.1231   51.4725 C   0  0  0  0  0  0  0  0  0  0  0  0
    3.1311   42.9794   50.6592 N   0  0  0  0  0  0  0  0  0  0  0  0
    4.9450   43.8876   50.2485 H   0  0  0  0  0  0  0  0  0  0  0  0
    2.8771   47.6177   51.7764 H   0  0  0  0  0  0  0  0  0  0  0  0
    2.8074   48.3331   53.4218 H   0  0  0  0  0  0  0  0  0  0  0  0
    5.1340   46.7793   52.1771 H   0  0  0  0  0  0  0  0  0  0  0  0
    5.0695   48.5477   52.5814 H   0  0  0  0  0  0  0  0  0  0  0  0
    5.0037   48.1139   54.9057 H   0  0  0  0  0  0  0  0  0  0  0  0
    7.2292   47.9566   54.8818 H   0  0  0  0  0  0  0  0  0  0  0  0
    7.0771   46.1546   54.7175 H   0  0  0  0  0  0  0  0  0  0  0  0
    6.7147   47.7286   52.3098 H   0  0  0  0  0  0  0  0  0  0  0  0
    6.8387   45.1360   52.6952 H   0  0  0  0  0  0  0  0  0  0  0  0
    7.1830   45.9951   51.1314 H   0  0  0  0  0  0  0  0  0  0  0  0
    8.8719   44.2090   52.1539 H   0  0  0  0  0  0  0  0  0  0  0  0
    9.4246   45.7131   51.2872 H   0  0  0  0  0  0  0  0  0  0  0  0
    9.2257   45.3492   54.2994 H   0  0  0  0  0  0  0  0  0  0  0  0
   10.7358   45.3355   53.2994 H   0  0  0  0  0  0  0  0  0  0  0  0
    9.7926   47.5397   54.5585 H   0  0  0  0  0  0  0  0  0  0  0  0
   10.7430   47.5594   52.9975 H   0  0  0  0  0  0  0  0  0  0  0  0
    8.5219   48.9702   53.2592 H   0  0  0  0  0  0  0  0  0  0  0  0
    8.9359   48.1103   51.7261 H   0  0  0  0  0  0  0  0  0  0  0  0
    5.0410   45.1153   54.5396 H   0  0  0  0  0  0  0  0  0  0  0  0
    4.7810   46.1203   56.0404 H   0  0  0  0  0  0  0  0  0  0  0  0
    2.7162   44.9998   55.0444 H   0  0  0  0  0  0  0  0  0  0  0  0
    2.6342   46.7816   55.3620 H   0  0  0  0  0  0  0  0  0  0  0  0
    0.1580   44.4304   53.8383 H   0  0  0  0  0  0  0  0  0  0  0  0
   -0.8082   42.1784   52.7674 H   0  0  0  0  0  0  0  0  0  0  0  0
    0.9514   41.4084   50.9853 H   0  0  0  0  0  0  0  0  0  0  0  0
  1  2  2  0
  2  3  1  0
  3  4  1  0
  4  5  1  0
  5  6  1  0
  6  7  1  0
  7  8  1  0
  8  9  1  0
  9 10  1  0
 10 11  1  0
 11 12  1  0
 12 13  1  0
 13 14  1  0
  7 15  1  0
 15 16  1  0
  3 17  2  0
 17 18  1  0
 18 19  2  0
 19 20  1  0
 20 21  1  0
 21 22  2  0
 22  1  1  0
 16  4  1  0
 21 17  1  0
 14  9  1  0
  1 23  1  0
  5 24  1  0
  5 25  1  0
  6 26  1  0
  6 27  1  0
  7 28  1  0
  8 29  1  0
  8 30  1  0
  9 31  1  0
 10 32  1  0
 10 33  1  0
 11 34  1  0
 11 35  1  0
 12 36  1  0
 12 37  1  0
 13 38  1  0
 13 39  1  0
 14 40  1  0
 14 41  1  0
 15 42  1  0
 15 43  1  0
 16 44  1  0
 16 45  1  0
 18 46  1  0
 19 47  1  0
 20 48  1  0
M  CHG  1   9   1
M  END
>  <meeko>  (7) 
{"is_sidechain": false}

>  <CID>  (7) 
Z1039088436

>  <pose_index>  (7) 
7

>  <docking_score>  (7) 
-7.572

>  <rmsd_to_best_selected>  (7) 
1.390806240617072

>  <MWT>  (7) 
300.4299999999995

>  <TPSA>  (7) 
49.25

>  <logP>  (7) 
1.2430999999999994

>  <HBD>  (7) 
2

>  <HBA>  (7) 
3

>  <SMILES>  (7) 
[H]c1nc(N2C([H])([H])C([H])([H])C([H])(C([H])([H])[N+]3([H])C([H])([H])C([H])([H])C([H])([H])C([H])([H])C3([H])[H])C([H])([H])C2([H])[H])c2c([H])c([H])n([H])c2n1

$$$$
Z1039088436_pose9
     RDKit          3D

 48 51  0  0  0  0  0  0  0  0999 V2000
    4.1219   43.4955   51.2968 C   0  0  0  0  0  0  0  0  0  0  0  0
    3.9550   44.7136   51.8569 N   0  0  0  0  0  0  0  0  0  0  0  0
    2.8752   44.9257   52.6628 C   0  0  0  0  0  0  0  0  0  0  0  0
    2.6929   46.1644   53.2840 N   0  0  0  0  0  0  0  0  0  0  0  0
    3.0277   47.3216   52.4563 C   0  0  0  0  0  0  0  0  0  0  0  0
    4.5454   47.4948   52.4170 C   0  0  0  0  0  0  0  0  0  0  0  0
    5.1551   47.5780   53.8322 C   0  0  0  0  0  0  0  0  0  0  0  0
    6.6919   47.5981   53.7760 C   0  0  0  0  0  0  0  0  0  0  0  0
    7.2331   46.8297   52.5736 N   0  0  0  0  0  4  0  0  0  0  0  0
    7.7210   45.4291   52.8945 C   0  0  0  0  0  0  0  0  0  0  0  0
    9.2429   45.3501   52.9672 C   0  0  0  0  0  0  0  0  0  0  0  0
    9.8791   46.6464   53.4454 C   0  0  0  0  0  0  0  0  0  0  0  0
    9.5251   47.8139   52.5273 C   0  0  0  0  0  0  0  0  0  0  0  0
    8.2265   47.6100   51.7536 C   0  0  0  0  0  0  0  0  0  0  0  0
    4.6238   46.4950   54.7924 C   0  0  0  0  0  0  0  0  0  0  0  0
    3.1151   46.2747   54.6784 C   0  0  0  0  0  0  0  0  0  0  0  0
    1.9733   43.8529   52.8282 C   0  0  0  0  0  0  0  0  0  0  0  0
    0.7787   43.6113   53.5694 C   0  0  0  0  0  0  0  0  0  0  0  0
    0.3701   42.3206   53.3069 C   0  0  0  0  0  0  0  0  0  0  0  0
    1.2815   41.7614   52.4485 N   0  0  0  0  0  0  0  0  0  0  0  0
    2.2597   42.6742   52.1570 C   0  0  0  0  0  0  0  0  0  0  0  0
    3.3123   42.4323   51.3647 N   0  0  0  0  0  0  0  0  0  0  0  0
    5.0419   43.3603   50.7091 H   0  0  0  0  0  0  0  0  0  0  0  0
    2.6497   47.1642   51.4353 H   0  0  0  0  0  0  0  0  0  0  0  0
    2.5655   48.2243   52.8822 H   0  0  0  0  0  0  0  0  0  0  0  0
    4.9872   46.6364   51.8900 H   0  0  0  0  0  0  0  0  0  0  0  0
    4.7660   48.4383   51.8963 H   0  0  0  0  0  0  0  0  0  0  0  0
    4.8209   48.5354   54.2584 H   0  0  0  0  0  0  0  0  0  0  0  0
    7.0307   48.6426   53.7110 H   0  0  0  0  0  0  0  0  0  0  0  0
    7.0703   47.1113   54.6869 H   0  0  0  0  0  0  0  0  0  0  0  0
    6.4310   46.6794   51.9417 H   0  0  0  0  0  0  0  0  0  0  0  0
    7.3039   45.1227   53.8652 H   0  0  0  0  0  0  0  0  0  0  0  0
    7.3870   44.7623   52.0860 H   0  0  0  0  0  0  0  0  0  0  0  0
    9.5201   44.5450   53.6637 H   0  0  0  0  0  0  0  0  0  0  0  0
    9.6131   45.1555   51.9498 H   0  0  0  0  0  0  0  0  0  0  0  0
    9.5192   46.8682   54.4609 H   0  0  0  0  0  0  0  0  0  0  0  0
   10.9716   46.5190   53.4369 H   0  0  0  0  0  0  0  0  0  0  0  0
    9.4254   48.7212   53.1411 H   0  0  0  0  0  0  0  0  0  0  0  0
   10.3330   47.8974   51.7855 H   0  0  0  0  0  0  0  0  0  0  0  0
    7.7970   48.5915   51.5047 H   0  0  0  0  0  0  0  0  0  0  0  0
    8.4475   47.0452   50.8359 H   0  0  0  0  0  0  0  0  0  0  0  0
    5.1334   45.5468   54.5658 H   0  0  0  0  0  0  0  0  0  0  0  0
    4.8268   46.8394   55.8172 H   0  0  0  0  0  0  0  0  0  0  0  0
    2.8486   45.3475   55.2068 H   0  0  0  0  0  0  0  0  0  0  0  0
    2.6055   47.1410   55.1254 H   0  0  0  0  0  0  0  0  0  0  0  0
    0.2727   44.3279   54.2330 H   0  0  0  0  0  0  0  0  0  0  0  0
   -0.5257   41.8282   53.7131 H   0  0  0  0  0  0  0  0  0  0  0  0
    1.2680   40.8154   52.0935 H   0  0  0  0  0  0  0  0  0  0  0  0
  1  2  2  0
  2  3  1  0
  3  4  1  0
  4  5  1  0
  5  6  1  0
  6  7  1  0
  7  8  1  0
  8  9  1  0
  9 10  1  0
 10 11  1  0
 11 12  1  0
 12 13  1  0
 13 14  1  0
  7 15  1  0
 15 16  1  0
  3 17  2  0
 17 18  1  0
 18 19  2  0
 19 20  1  0
 20 21  1  0
 21 22  2  0
 22  1  1  0
 16  4  1  0
 21 17  1  0
 14  9  1  0
  1 23  1  0
  5 24  1  0
  5 25  1  0
  6 26  1  0
  6 27  1  0
  7 28  1  0
  8 29  1  0
  8 30  1  0
  9 31  1  0
 10 32  1  0
 10 33  1  0
 11 34  1  0
 11 35  1  0
 12 36  1  0
 12 37  1  0
 13 38  1  0
 13 39  1  0
 14 40  1  0
 14 41  1  0
 15 42  1  0
 15 43  1  0
 16 44  1  0
 16 45  1  0
 18 46  1  0
 19 47  1  0
 20 48  1  0
M  CHG  1   9   1
M  END
>  <meeko>  (8) 
{"is_sidechain": false}

>  <CID>  (8) 
Z1039088436

>  <pose_index>  (8) 
9

>  <docking_score>  (8) 
-7.456

>  <rmsd_to_best_selected>  (8) 
1.6497695359525284

>  <MWT>  (8) 
300.4299999999995

>  <TPSA>  (8) 
49.25

>  <logP>  (8) 
1.2430999999999994

>  <HBD>  (8) 
2

>  <HBA>  (8) 
3

>  <SMILES>  (8) 
[H]c1nc(N2C([H])([H])C([H])([H])C([H])(C([H])([H])[N+]3([H])C([H])([H])C([H])([H])C([H])([H])C([H])([H])C3([H])[H])C([H])([H])C2([H])[H])c2c([H])c([H])n([H])c2n1

$$$$
