Z1127203562_pose1
     RDKit          3D

 51 53  0  0  0  0  0  0  0  0999 V2000
    1.6900   45.6130   56.0920 C   0  0  0  0  0  0  0  0  0  0  0  0
    2.2390   44.6410   55.0450 C   0  0  0  0  0  0  0  0  0  0  0  0
    1.1110   43.9940   54.2370 C   0  0  0  0  0  0  0  0  0  0  0  0
    3.2730   45.2420   54.1760 N   0  0  0  0  0  0  0  0  0  0  0  0
    2.9460   45.3130   52.7440 C   0  0  0  0  0  0  0  0  0  0  0  0
    3.9750   44.5510   51.9210 C   0  0  0  0  0  0  0  0  0  0  0  0
    5.0180   45.1500   51.4410 N   0  0  0  0  0  0  0  0  0  0  0  0
    5.9280   44.3820   50.6940 C   0  0  0  0  0  0  0  0  0  0  0  0
    7.0570   45.0040   50.1590 C   0  0  0  0  0  0  0  0  0  0  0  0
    7.9850   44.2750   49.4090 C   0  0  0  0  0  0  0  0  0  0  0  0
    7.7910   42.9110   49.1860 C   0  0  0  0  0  0  0  0  0  0  0  0
    6.6690   42.2730   49.7130 C   0  0  0  0  0  0  0  0  0  0  0  0
    5.7480   43.0130   50.4630 C   0  0  0  0  0  0  0  0  0  0  0  0
    4.5510   42.3780   51.0380 C   0  0  0  0  0  0  0  0  0  0  0  0
    4.3130   41.1840   50.9000 O   0  0  0  0  0  0  0  0  0  0  0  0
    3.7280   43.2140   51.7460 N   0  0  0  0  0  0  0  0  0  0  0  0
    4.5590   45.4290   54.6730 C   0  0  0  0  0  0  0  0  0  0  0  0
    5.1530   44.6100   55.3650 O   0  0  0  0  0  0  0  0  0  0  0  0
    5.1520   46.6100   54.2820 N   0  0  0  0  0  0  0  0  0  0  0  0
    6.5270   46.8670   54.6850 C   0  0  0  0  0  0  0  0  0  0  0  0
    7.4970   46.6650   53.5270 C   0  0  0  0  0  0  0  0  0  0  0  0
    8.9670   46.8020   53.9220 C   0  0  0  0  0  0  0  0  0  0  0  0
    9.6540   47.0100   52.5830 C   0  0  0  0  0  0  0  0  0  0  0  0
    8.7130   47.9390   51.8250 C   0  0  0  0  0  0  0  0  0  0  0  0
    7.3210   47.7080   52.4160 C   0  0  0  0  0  0  0  0  0  0  0  0
    1.9074   45.2281   57.0993 H   0  0  0  0  0  0  0  0  0  0  0  0
    2.1660   46.5964   55.9646 H   0  0  0  0  0  0  0  0  0  0  0  0
    0.6020   45.7130   55.9646 H   0  0  0  0  0  0  0  0  0  0  0  0
    2.7502   43.8420   55.6020 H   0  0  0  0  0  0  0  0  0  0  0  0
    0.3661   43.5667   54.9244 H   0  0  0  0  0  0  0  0  0  0  0  0
    0.6314   44.7543   53.6030 H   0  0  0  0  0  0  0  0  0  0  0  0
    1.5251   43.1961   53.6030 H   0  0  0  0  0  0  0  0  0  0  0  0
    1.9520   44.8722   52.5779 H   0  0  0  0  0  0  0  0  0  0  0  0
    2.9518   46.3675   52.4308 H   0  0  0  0  0  0  0  0  0  0  0  0
    7.2185   46.0787   50.3291 H   0  0  0  0  0  0  0  0  0  0  0  0
    8.8706   44.7781   48.9935 H   0  0  0  0  0  0  0  0  0  0  0  0
    8.5224   42.3401   48.5952 H   0  0  0  0  0  0  0  0  0  0  0  0
    6.5092   41.1984   49.5409 H   0  0  0  0  0  0  0  0  0  0  0  0
    2.8710   42.8070   52.1030 H   0  0  0  0  0  0  0  0  0  0  0  0
    4.5410   47.3990   54.4370 H   0  0  0  0  0  0  0  0  0  0  0  0
    6.6068   47.9048   55.0409 H   0  0  0  0  0  0  0  0  0  0  0  0
    6.7905   46.1572   55.4830 H   0  0  0  0  0  0  0  0  0  0  0  0
    7.2586   45.6440   53.1942 H   0  0  0  0  0  0  0  0  0  0  0  0
    9.1208   47.6660   54.5853 H   0  0  0  0  0  0  0  0  0  0  0  0
    9.3517   45.9359   54.4804 H   0  0  0  0  0  0  0  0  0  0  0  0
   10.6402   47.4781   52.7183 H   0  0  0  0  0  0  0  0  0  0  0  0
    9.8360   46.0653   52.0497 H   0  0  0  0  0  0  0  0  0  0  0  0
    9.0175   48.9869   51.9638 H   0  0  0  0  0  0  0  0  0  0  0  0
    8.7298   47.7335   50.7445 H   0  0  0  0  0  0  0  0  0  0  0  0
    6.9228   48.6452   52.8321 H   0  0  0  0  0  0  0  0  0  0  0  0
    6.6118   47.3622   51.6495 H   0  0  0  0  0  0  0  0  0  0  0  0
  1  2  1  0
  2  3  1  0
  2  4  1  0
  4  5  1  0
  5  6  1  0
  6  7  2  0
  7  8  1  0
  8  9  2  0
  9 10  1  0
 10 11  2  0
 11 12  1  0
 12 13  2  0
 13 14  1  0
 14 15  2  0
 14 16  1  0
  4 17  1  0
 17 18  2  0
 17 19  1  0
 19 20  1  0
 20 21  1  0
 21 22  1  0
 22 23  1  0
 23 24  1  0
 24 25  1  0
 16  6  1  0
 25 21  1  0
 13  8  1  0
  1 26  1  0
  1 27  1  0
  1 28  1  0
  2 29  1  0
  3 30  1  0
  3 31  1  0
  3 32  1  0
  5 33  1  0
  5 34  1  0
  9 35  1  0
 10 36  1  0
 11 37  1  0
 12 38  1  0
 16 39  1  0
 19 40  1  0
 20 41  1  0
 20 42  1  0
 21 43  1  0
 22 44  1  0
 22 45  1  0
 23 46  1  0
 23 47  1  0
 24 48  1  0
 24 49  1  0
 25 50  1  0
 25 51  1  0
M  END
>  <meeko>  (1) 
{"is_sidechain": false}

>  <CID>  (1) 
Z1127203562

>  <pose_index>  (1) 
1

>  <docking_score>  (1) 
-9.076

>  <rmsd_to_best_selected>  (1) 
0.0

>  <MWT>  (1) 
342.44299999999964

>  <TPSA>  (1) 
78.09

>  <logP>  (1) 
3.0333000000000014

>  <HBD>  (1) 
2

>  <HBA>  (1) 
3

>  <SMILES>  (1) 
[H]c1c([H])c([H])c2c(=O)n([H])c(C([H])([H])N(C(=O)N([H])C([H])([H])C3([H])C([H])([H])C([H])([H])C([H])([H])C3([H])[H])C([H])(C([H])([H])[H])C([H])([H])[H])nc2c1[H]

$$$$
Z1127203562_pose3
     RDKit          3D

 51 53  0  0  0  0  0  0  0  0999 V2000
    1.6307   43.7565   54.2518 C   0  0  0  0  0  0  0  0  0  0  0  0
    2.1593   45.1860   54.3952 C   0  0  0  0  0  0  0  0  0  0  0  0
    1.7967   45.7826   55.7576 C   0  0  0  0  0  0  0  0  0  0  0  0
    3.6038   45.3057   54.1007 N   0  0  0  0  0  0  0  0  0  0  0  0
    4.3711   44.0508   54.1326 C   0  0  0  0  0  0  0  0  0  0  0  0
    4.8678   43.6917   52.7389 C   0  0  0  0  0  0  0  0  0  0  0  0
    5.6454   44.4935   52.0830 N   0  0  0  0  0  0  0  0  0  0  0  0
    6.0669   44.0932   50.8026 C   0  0  0  0  0  0  0  0  0  0  0  0
    6.8995   44.9420   50.0712 C   0  0  0  0  0  0  0  0  0  0  0  0
    7.3406   44.5812   48.7941 C   0  0  0  0  0  0  0  0  0  0  0  0
    6.9515   43.3622   48.2352 C   0  0  0  0  0  0  0  0  0  0  0  0
    6.1207   42.5028   48.9523 C   0  0  0  0  0  0  0  0  0  0  0  0
    5.6867   42.8746   50.2296 C   0  0  0  0  0  0  0  0  0  0  0  0
    4.8104   41.9949   51.0204 C   0  0  0  0  0  0  0  0  0  0  0  0
    4.4335   40.9038   50.6091 O   0  0  0  0  0  0  0  0  0  0  0  0
    4.4542   42.4787   52.2526 N   0  0  0  0  0  0  0  0  0  0  0  0
    4.1996   46.5630   54.1018 C   0  0  0  0  0  0  0  0  0  0  0  0
    3.6498   47.5830   53.7030 O   0  0  0  0  0  0  0  0  0  0  0  0
    5.4672   46.5898   54.6420 N   0  0  0  0  0  0  0  0  0  0  0  0
    6.1481   47.8705   54.7603 C   0  0  0  0  0  0  0  0  0  0  0  0
    7.4480   47.8891   53.9649 C   0  0  0  0  0  0  0  0  0  0  0  0
    7.2448   47.9357   52.4504 C   0  0  0  0  0  0  0  0  0  0  0  0
    8.5988   47.4976   51.9189 C   0  0  0  0  0  0  0  0  0  0  0  0
    9.0159   46.3694   52.8550 C   0  0  0  0  0  0  0  0  0  0  0  0
    8.2924   46.6267   54.1789 C   0  0  0  0  0  0  0  0  0  0  0  0
    0.5315   43.7662   54.2929 H   0  0  0  0  0  0  0  0  0  0  0  0
    1.9578   43.3396   53.2878 H   0  0  0  0  0  0  0  0  0  0  0  0
    2.0228   43.1366   55.0714 H   0  0  0  0  0  0  0  0  0  0  0  0
    1.6503   45.7836   53.6246 H   0  0  0  0  0  0  0  0  0  0  0  0
    1.3615   46.7829   55.6157 H   0  0  0  0  0  0  0  0  0  0  0  0
    1.0653   45.1324   56.2597 H   0  0  0  0  0  0  0  0  0  0  0  0
    2.7028   45.8614   56.3762 H   0  0  0  0  0  0  0  0  0  0  0  0
    5.2339   44.1714   54.8041 H   0  0  0  0  0  0  0  0  0  0  0  0
    3.7171   43.2440   54.4951 H   0  0  0  0  0  0  0  0  0  0  0  0
    7.2117   45.9041   50.5037 H   0  0  0  0  0  0  0  0  0  0  0  0
    7.9960   45.2596   48.2283 H   0  0  0  0  0  0  0  0  0  0  0  0
    7.3000   43.0806   47.2306 H   0  0  0  0  0  0  0  0  0  0  0  0
    5.8091   41.5414   48.5182 H   0  0  0  0  0  0  0  0  0  0  0  0
    3.8073   41.9122   52.7896 H   0  0  0  0  0  0  0  0  0  0  0  0
    6.0516   45.8660   54.2468 H   0  0  0  0  0  0  0  0  0  0  0  0
    5.4862   48.6632   54.3816 H   0  0  0  0  0  0  0  0  0  0  0  0
    6.3906   48.0351   55.8206 H   0  0  0  0  0  0  0  0  0  0  0  0
    7.9404   48.7996   54.3373 H   0  0  0  0  0  0  0  0  0  0  0  0
    6.4514   47.2420   52.1350 H   0  0  0  0  0  0  0  0  0  0  0  0
    6.9296   48.9231   52.0821 H   0  0  0  0  0  0  0  0  0  0  0  0
    8.5137   47.1353   50.8838 H   0  0  0  0  0  0  0  0  0  0  0  0
    9.3297   48.3193   51.8948 H   0  0  0  0  0  0  0  0  0  0  0  0
    8.7151   45.3968   52.4384 H   0  0  0  0  0  0  0  0  0  0  0  0
   10.1071   46.3435   52.9918 H   0  0  0  0  0  0  0  0  0  0  0  0
    7.6459   45.7737   54.4325 H   0  0  0  0  0  0  0  0  0  0  0  0
    9.0047   46.7557   55.0071 H   0  0  0  0  0  0  0  0  0  0  0  0
  1  2  1  0
  2  3  1  0
  2  4  1  0
  4  5  1  0
  5  6  1  0
  6  7  2  0
  7  8  1  0
  8  9  2  0
  9 10  1  0
 10 11  2  0
 11 12  1  0
 12 13  2  0
 13 14  1  0
 14 15  2  0
 14 16  1  0
  4 17  1  0
 17 18  2  0
 17 19  1  0
 19 20  1  0
 20 21  1  0
 21 22  1  0
 22 23  1  0
 23 24  1  0
 24 25  1  0
 16  6  1  0
 25 21  1  0
 13  8  1  0
  1 26  1  0
  1 27  1  0
  1 28  1  0
  2 29  1  0
  3 30  1  0
  3 31  1  0
  3 32  1  0
  5 33  1  0
  5 34  1  0
  9 35  1  0
 10 36  1  0
 11 37  1  0
 12 38  1  0
 16 39  1  0
 19 40  1  0
 20 41  1  0
 20 42  1  0
 21 43  1  0
 22 44  1  0
 22 45  1  0
 23 46  1  0
 23 47  1  0
 24 48  1  0
 24 49  1  0
 25 50  1  0
 25 51  1  0
M  END
>  <meeko>  (2) 
{"is_sidechain": false}

>  <CID>  (2) 
Z1127203562

>  <pose_index>  (2) 
3

>  <docking_score>  (2) 
-9.012

>  <rmsd_to_best_selected>  (2) 
1.516042509348046

>  <MWT>  (2) 
342.44299999999964

>  <TPSA>  (2) 
78.09

>  <logP>  (2) 
3.0333000000000014

>  <HBD>  (2) 
2

>  <HBA>  (2) 
3

>  <SMILES>  (2) 
[H]c1c([H])c([H])c2c(=O)n([H])c(C([H])([H])N(C(=O)N([H])C([H])([H])C3([H])C([H])([H])C([H])([H])C([H])([H])C3([H])[H])C([H])(C([H])([H])[H])C([H])([H])[H])nc2c1[H]

$$$$
Z1127203562_pose4
     RDKit          3D

 51 53  0  0  0  0  0  0  0  0999 V2000
    2.1078   45.5123   55.9912 C   0  0  0  0  0  0  0  0  0  0  0  0
    2.5953   44.5857   54.8738 C   0  0  0  0  0  0  0  0  0  0  0  0
    1.8303   44.8309   53.5710 C   0  0  0  0  0  0  0  0  0  0  0  0
    4.0603   44.6315   54.6765 N   0  0  0  0  0  0  0  0  0  0  0  0
    4.7201   43.3337   54.4701 C   0  0  0  0  0  0  0  0  0  0  0  0
    5.0613   43.1340   53.0001 C   0  0  0  0  0  0  0  0  0  0  0  0
    6.2111   43.4972   52.5280 N   0  0  0  0  0  0  0  0  0  0  0  0
    6.4577   43.2785   51.1620 C   0  0  0  0  0  0  0  0  0  0  0  0
    7.6859   43.6677   50.6275 C   0  0  0  0  0  0  0  0  0  0  0  0
    7.9694   43.4676   49.2721 C   0  0  0  0  0  0  0  0  0  0  0  0
    7.0208   42.8749   48.4359 C   0  0  0  0  0  0  0  0  0  0  0  0
    5.7889   42.4802   48.9546 C   0  0  0  0  0  0  0  0  0  0  0  0
    5.5173   42.6843   50.3114 C   0  0  0  0  0  0  0  0  0  0  0  0
    4.2298   42.2805   50.8983 C   0  0  0  0  0  0  0  0  0  0  0  0
    3.3489   41.7424   50.2378 O   0  0  0  0  0  0  0  0  0  0  0  0
    4.0886   42.5406   52.2372 N   0  0  0  0  0  0  0  0  0  0  0  0
    4.7543   45.7996   54.9765 C   0  0  0  0  0  0  0  0  0  0  0  0
    5.3197   46.0073   56.0443 O   0  0  0  0  0  0  0  0  0  0  0  0
    4.8053   46.7098   53.9434 N   0  0  0  0  0  0  0  0  0  0  0  0
    5.5731   47.9321   54.1290 C   0  0  0  0  0  0  0  0  0  0  0  0
    6.6284   48.1011   53.0406 C   0  0  0  0  0  0  0  0  0  0  0  0
    7.2568   46.7864   52.5821 C   0  0  0  0  0  0  0  0  0  0  0  0
    8.5229   47.2490   51.8817 C   0  0  0  0  0  0  0  0  0  0  0  0
    9.0471   48.3716   52.7696 C   0  0  0  0  0  0  0  0  0  0  0  0
    7.8293   48.9356   53.5033 C   0  0  0  0  0  0  0  0  0  0  0  0
    1.0195   45.6483   55.9061 H   0  0  0  0  0  0  0  0  0  0  0  0
    2.3463   45.0660   56.9679 H   0  0  0  0  0  0  0  0  0  0  0  0
    2.6073   46.4883   55.9023 H   0  0  0  0  0  0  0  0  0  0  0  0
    2.3732   43.5597   55.2022 H   0  0  0  0  0  0  0  0  0  0  0  0
    0.7546   44.6788   53.7432 H   0  0  0  0  0  0  0  0  0  0  0  0
    2.0051   45.8626   53.2318 H   0  0  0  0  0  0  0  0  0  0  0  0
    2.1815   44.1275   52.8016 H   0  0  0  0  0  0  0  0  0  0  0  0
    5.6455   43.3002   55.0639 H   0  0  0  0  0  0  0  0  0  0  0  0
    4.0353   42.5334   54.7872 H   0  0  0  0  0  0  0  0  0  0  0  0
    8.4389   44.1365   51.2780 H   0  0  0  0  0  0  0  0  0  0  0  0
    8.9425   43.7781   48.8639 H   0  0  0  0  0  0  0  0  0  0  0  0
    7.2454   42.7200   47.3702 H   0  0  0  0  0  0  0  0  0  0  0  0
    5.0367   42.0121   48.3025 H   0  0  0  0  0  0  0  0  0  0  0  0
    3.1883   42.3197   52.6476 H   0  0  0  0  0  0  0  0  0  0  0  0
    3.8894   46.8745   53.5516 H   0  0  0  0  0  0  0  0  0  0  0  0
    4.8881   48.7922   54.0992 H   0  0  0  0  0  0  0  0  0  0  0  0
    6.0860   47.8728   55.1003 H   0  0  0  0  0  0  0  0  0  0  0  0
    6.0602   48.5844   52.2321 H   0  0  0  0  0  0  0  0  0  0  0  0
    7.4916   46.1385   53.4394 H   0  0  0  0  0  0  0  0  0  0  0  0
    6.5957   46.1872   51.9387 H   0  0  0  0  0  0  0  0  0  0  0  0
    9.2541   46.4299   51.8146 H   0  0  0  0  0  0  0  0  0  0  0  0
    8.3388   47.5778   50.8483 H   0  0  0  0  0  0  0  0  0  0  0  0
    9.7788   47.9781   53.4906 H   0  0  0  0  0  0  0  0  0  0  0  0
    9.5552   49.1477   52.1784 H   0  0  0  0  0  0  0  0  0  0  0  0
    7.9623   48.8424   54.5913 H   0  0  0  0  0  0  0  0  0  0  0  0
    7.6857   50.0034   53.2811 H   0  0  0  0  0  0  0  0  0  0  0  0
  1  2  1  0
  2  3  1  0
  2  4  1  0
  4  5  1  0
  5  6  1  0
  6  7  2  0
  7  8  1  0
  8  9  2  0
  9 10  1  0
 10 11  2  0
 11 12  1  0
 12 13  2  0
 13 14  1  0
 14 15  2  0
 14 16  1  0
  4 17  1  0
 17 18  2  0
 17 19  1  0
 19 20  1  0
 20 21  1  0
 21 22  1  0
 22 23  1  0
 23 24  1  0
 24 25  1  0
 16  6  1  0
 25 21  1  0
 13  8  1  0
  1 26  1  0
  1 27  1  0
  1 28  1  0
  2 29  1  0
  3 30  1  0
  3 31  1  0
  3 32  1  0
  5 33  1  0
  5 34  1  0
  9 35  1  0
 10 36  1  0
 11 37  1  0
 12 38  1  0
 16 39  1  0
 19 40  1  0
 20 41  1  0
 20 42  1  0
 21 43  1  0
 22 44  1  0
 22 45  1  0
 23 46  1  0
 23 47  1  0
 24 48  1  0
 24 49  1  0
 25 50  1  0
 25 51  1  0
M  END
>  <meeko>  (3) 
{"is_sidechain": false}

>  <CID>  (3) 
Z1127203562

>  <pose_index>  (3) 
4

>  <docking_score>  (3) 
-8.544

>  <rmsd_to_best_selected>  (3) 
1.805909149790075

>  <MWT>  (3) 
342.44299999999964

>  <TPSA>  (3) 
78.09

>  <logP>  (3) 
3.0333000000000014

>  <HBD>  (3) 
2

>  <HBA>  (3) 
3

>  <SMILES>  (3) 
[H]c1c([H])c([H])c2c(=O)n([H])c(C([H])([H])N(C(=O)N([H])C([H])([H])C3([H])C([H])([H])C([H])([H])C([H])([H])C3([H])[H])C([H])(C([H])([H])[H])C([H])([H])[H])nc2c1[H]

$$$$
Z1127203562_pose5
     RDKit          3D

 51 53  0  0  0  0  0  0  0  0999 V2000
    2.4771   46.5299   53.5060 C   0  0  0  0  0  0  0  0  0  0  0  0
    2.5752   45.5279   54.6585 C   0  0  0  0  0  0  0  0  0  0  0  0
    1.4519   44.4895   54.5939 C   0  0  0  0  0  0  0  0  0  0  0  0
    3.9093   44.8994   54.7722 N   0  0  0  0  0  0  0  0  0  0  0  0
    3.9577   43.4494   54.5300 C   0  0  0  0  0  0  0  0  0  0  0  0
    4.5629   43.1558   53.1648 C   0  0  0  0  0  0  0  0  0  0  0  0
    5.2451   44.0557   52.5310 N   0  0  0  0  0  0  0  0  0  0  0  0
    5.7779   43.7119   51.2758 C   0  0  0  0  0  0  0  0  0  0  0  0
    6.5097   44.6669   50.5695 C   0  0  0  0  0  0  0  0  0  0  0  0
    7.0553   44.3643   49.3173 C   0  0  0  0  0  0  0  0  0  0  0  0
    6.8724   43.0966   48.7602 C   0  0  0  0  0  0  0  0  0  0  0  0
    6.1438   42.1309   49.4521 C   0  0  0  0  0  0  0  0  0  0  0  0
    5.6036   42.4462   50.7044 C   0  0  0  0  0  0  0  0  0  0  0  0
    4.8295   41.4554   51.4696 C   0  0  0  0  0  0  0  0  0  0  0  0
    4.6340   40.3182   51.0582 O   0  0  0  0  0  0  0  0  0  0  0  0
    4.3519   41.8911   52.6773 N   0  0  0  0  0  0  0  0  0  0  0  0
    4.9504   45.6086   55.3642 C   0  0  0  0  0  0  0  0  0  0  0  0
    5.1095   45.7100   56.5744 O   0  0  0  0  0  0  0  0  0  0  0  0
    5.8402   46.1610   54.4691 N   0  0  0  0  0  0  0  0  0  0  0  0
    7.0082   46.8577   54.9870 C   0  0  0  0  0  0  0  0  0  0  0  0
    7.7134   47.6560   53.8962 C   0  0  0  0  0  0  0  0  0  0  0  0
    6.7624   48.2859   52.8795 C   0  0  0  0  0  0  0  0  0  0  0  0
    7.6843   48.6066   51.7156 C   0  0  0  0  0  0  0  0  0  0  0  0
    8.6072   47.3961   51.6308 C   0  0  0  0  0  0  0  0  0  0  0  0
    8.6439   46.7924   53.0363 C   0  0  0  0  0  0  0  0  0  0  0  0
    1.7362   47.3038   53.7550 H   0  0  0  0  0  0  0  0  0  0  0  0
    3.4584   47.0002   53.3445 H   0  0  0  0  0  0  0  0  0  0  0  0
    2.1665   46.0060   52.5900 H   0  0  0  0  0  0  0  0  0  0  0  0
    2.4407   46.1058   55.5848 H   0  0  0  0  0  0  0  0  0  0  0  0
    0.4803   44.9930   54.7057 H   0  0  0  0  0  0  0  0  0  0  0  0
    1.4870   43.9714   53.6242 H   0  0  0  0  0  0  0  0  0  0  0  0
    1.5815   43.7582   55.4053 H   0  0  0  0  0  0  0  0  0  0  0  0
    4.5720   42.9729   55.3081 H   0  0  0  0  0  0  0  0  0  0  0  0
    2.9330   43.0502   54.5577 H   0  0  0  0  0  0  0  0  0  0  0  0
    6.6591   45.6675   51.0013 H   0  0  0  0  0  0  0  0  0  0  0  0
    7.6298   45.1264   48.7703 H   0  0  0  0  0  0  0  0  0  0  0  0
    7.3030   42.8607   47.7759 H   0  0  0  0  0  0  0  0  0  0  0  0
    5.9948   41.1310   49.0185 H   0  0  0  0  0  0  0  0  0  0  0  0
    3.7710   41.2408   53.1946 H   0  0  0  0  0  0  0  0  0  0  0  0
    5.3623   46.6765   53.7438 H   0  0  0  0  0  0  0  0  0  0  0  0
    6.6895   47.5458   55.7838 H   0  0  0  0  0  0  0  0  0  0  0  0
    7.7128   46.1075   55.3751 H   0  0  0  0  0  0  0  0  0  0  0  0
    8.2546   48.4195   54.4743 H   0  0  0  0  0  0  0  0  0  0  0  0
    5.9762   47.5774   52.5795 H   0  0  0  0  0  0  0  0  0  0  0  0
    6.2271   49.1648   53.2681 H   0  0  0  0  0  0  0  0  0  0  0  0
    7.1110   48.7272   50.7846 H   0  0  0  0  0  0  0  0  0  0  0  0
    8.2341   49.5486   51.8585 H   0  0  0  0  0  0  0  0  0  0  0  0
    8.2119   46.6642   50.9110 H   0  0  0  0  0  0  0  0  0  0  0  0
    9.6132   47.6804   51.2886 H   0  0  0  0  0  0  0  0  0  0  0  0
    8.2868   45.7523   53.0142 H   0  0  0  0  0  0  0  0  0  0  0  0
    9.6668   46.7795   53.4408 H   0  0  0  0  0  0  0  0  0  0  0  0
  1  2  1  0
  2  3  1  0
  2  4  1  0
  4  5  1  0
  5  6  1  0
  6  7  2  0
  7  8  1  0
  8  9  2  0
  9 10  1  0
 10 11  2  0
 11 12  1  0
 12 13  2  0
 13 14  1  0
 14 15  2  0
 14 16  1  0
  4 17  1  0
 17 18  2  0
 17 19  1  0
 19 20  1  0
 20 21  1  0
 21 22  1  0
 22 23  1  0
 23 24  1  0
 24 25  1  0
 16  6  1  0
 25 21  1  0
 13  8  1  0
  1 26  1  0
  1 27  1  0
  1 28  1  0
  2 29  1  0
  3 30  1  0
  3 31  1  0
  3 32  1  0
  5 33  1  0
  5 34  1  0
  9 35  1  0
 10 36  1  0
 11 37  1  0
 12 38  1  0
 16 39  1  0
 19 40  1  0
 20 41  1  0
 20 42  1  0
 21 43  1  0
 22 44  1  0
 22 45  1  0
 23 46  1  0
 23 47  1  0
 24 48  1  0
 24 49  1  0
 25 50  1  0
 25 51  1  0
M  END
>  <meeko>  (4) 
{"is_sidechain": false}

>  <CID>  (4) 
Z1127203562

>  <pose_index>  (4) 
5

>  <docking_score>  (4) 
-8.401

>  <rmsd_to_best_selected>  (4) 
1.7211164393235243

>  <MWT>  (4) 
342.44299999999964

>  <TPSA>  (4) 
78.09

>  <logP>  (4) 
3.0333000000000014

>  <HBD>  (4) 
2

>  <HBA>  (4) 
3

>  <SMILES>  (4) 
[H]c1c([H])c([H])c2c(=O)n([H])c(C([H])([H])N(C(=O)N([H])C([H])([H])C3([H])C([H])([H])C([H])([H])C([H])([H])C3([H])[H])C([H])(C([H])([H])[H])C([H])([H])[H])nc2c1[H]

$$$$
Z1127203562_pose8
     RDKit          3D

 51 53  0  0  0  0  0  0  0  0999 V2000
    0.8156   44.7509   54.7991 C   0  0  0  0  0  0  0  0  0  0  0  0
    1.7521   45.9313   54.5318 C   0  0  0  0  0  0  0  0  0  0  0  0
    2.1496   46.6344   55.8319 C   0  0  0  0  0  0  0  0  0  0  0  0
    2.9279   45.5697   53.7120 N   0  0  0  0  0  0  0  0  0  0  0  0
    2.6646   44.6833   52.5683 C   0  0  0  0  0  0  0  0  0  0  0  0
    3.9667   44.1217   52.0151 C   0  0  0  0  0  0  0  0  0  0  0  0
    4.5924   44.7184   51.0515 N   0  0  0  0  0  0  0  0  0  0  0  0
    5.7918   44.1440   50.5937 C   0  0  0  0  0  0  0  0  0  0  0  0
    6.4818   44.7633   49.5510 C   0  0  0  0  0  0  0  0  0  0  0  0
    7.6777   44.2231   49.0676 C   0  0  0  0  0  0  0  0  0  0  0  0
    8.1957   43.0526   49.6259 C   0  0  0  0  0  0  0  0  0  0  0  0
    7.5194   42.4215   50.6689 C   0  0  0  0  0  0  0  0  0  0  0  0
    6.3243   42.9727   51.1446 C   0  0  0  0  0  0  0  0  0  0  0  0
    5.5808   42.3387   52.2450 C   0  0  0  0  0  0  0  0  0  0  0  0
    5.9732   41.3188   52.7988 O   0  0  0  0  0  0  0  0  0  0  0  0
    4.4241   42.9754   52.6130 N   0  0  0  0  0  0  0  0  0  0  0  0
    4.2055   45.8222   54.2004 C   0  0  0  0  0  0  0  0  0  0  0  0
    4.7955   45.0927   54.9881 O   0  0  0  0  0  0  0  0  0  0  0  0
    4.7958   46.9563   53.6856 N   0  0  0  0  0  0  0  0  0  0  0  0
    6.1626   47.2683   54.0747 C   0  0  0  0  0  0  0  0  0  0  0  0
    7.1525   46.9271   52.9667 C   0  0  0  0  0  0  0  0  0  0  0  0
    7.7882   45.5447   53.1117 C   0  0  0  0  0  0  0  0  0  0  0  0
    9.0020   45.6395   52.2024 C   0  0  0  0  0  0  0  0  0  0  0  0
    9.5457   47.0411   52.4578 C   0  0  0  0  0  0  0  0  0  0  0  0
    8.3555   47.8771   52.9312 C   0  0  0  0  0  0  0  0  0  0  0  0
    0.0541   44.7003   54.0069 H   0  0  0  0  0  0  0  0  0  0  0  0
    1.3966   43.8169   54.8093 H   0  0  0  0  0  0  0  0  0  0  0  0
    0.3230   44.8869   55.7731 H   0  0  0  0  0  0  0  0  0  0  0  0
    1.1802   46.6495   53.9259 H   0  0  0  0  0  0  0  0  0  0  0  0
    1.3620   47.3465   56.1193 H   0  0  0  0  0  0  0  0  0  0  0  0
    2.2767   45.8870   56.6289 H   0  0  0  0  0  0  0  0  0  0  0  0
    3.0958   47.1750   55.6819 H   0  0  0  0  0  0  0  0  0  0  0  0
    2.0224   43.8523   52.8953 H   0  0  0  0  0  0  0  0  0  0  0  0
    2.1642   45.2627   51.7784 H   0  0  0  0  0  0  0  0  0  0  0  0
    6.0811   45.6855   49.1048 H   0  0  0  0  0  0  0  0  0  0  0  0
    8.2119   44.7216   48.2453 H   0  0  0  0  0  0  0  0  0  0  0  0
    9.1361   42.6292   49.2432 H   0  0  0  0  0  0  0  0  0  0  0  0
    7.9213   41.4992   51.1136 H   0  0  0  0  0  0  0  0  0  0  0  0
    3.8696   42.5247   53.3321 H   0  0  0  0  0  0  0  0  0  0  0  0
    4.1768   47.7523   53.7430 H   0  0  0  0  0  0  0  0  0  0  0  0
    6.2337   48.3429   54.2987 H   0  0  0  0  0  0  0  0  0  0  0  0
    6.4149   46.6654   54.9596 H   0  0  0  0  0  0  0  0  0  0  0  0
    6.5289   46.9962   52.0632 H   0  0  0  0  0  0  0  0  0  0  0  0
    8.0863   45.3522   54.1529 H   0  0  0  0  0  0  0  0  0  0  0  0
    7.1081   44.7212   52.8483 H   0  0  0  0  0  0  0  0  0  0  0  0
    9.7489   44.8763   52.4663 H   0  0  0  0  0  0  0  0  0  0  0  0
    8.7531   45.4682   51.1447 H   0  0  0  0  0  0  0  0  0  0  0  0
   10.3252   47.0129   53.2334 H   0  0  0  0  0  0  0  0  0  0  0  0
   10.0014   47.4670   51.5517 H   0  0  0  0  0  0  0  0  0  0  0  0
    8.5501   48.2837   53.9346 H   0  0  0  0  0  0  0  0  0  0  0  0
    8.1729   48.7301   52.2610 H   0  0  0  0  0  0  0  0  0  0  0  0
  1  2  1  0
  2  3  1  0
  2  4  1  0
  4  5  1  0
  5  6  1  0
  6  7  2  0
  7  8  1  0
  8  9  2  0
  9 10  1  0
 10 11  2  0
 11 12  1  0
 12 13  2  0
 13 14  1  0
 14 15  2  0
 14 16  1  0
  4 17  1  0
 17 18  2  0
 17 19  1  0
 19 20  1  0
 20 21  1  0
 21 22  1  0
 22 23  1  0
 23 24  1  0
 24 25  1  0
 16  6  1  0
 25 21  1  0
 13  8  1  0
  1 26  1  0
  1 27  1  0
  1 28  1  0
  2 29  1  0
  3 30  1  0
  3 31  1  0
  3 32  1  0
  5 33  1  0
  5 34  1  0
  9 35  1  0
 10 36  1  0
 11 37  1  0
 12 38  1  0
 16 39  1  0
 19 40  1  0
 20 41  1  0
 20 42  1  0
 21 43  1  0
 22 44  1  0
 22 45  1  0
 23 46  1  0
 23 47  1  0
 24 48  1  0
 24 49  1  0
 25 50  1  0
 25 51  1  0
M  END
>  <meeko>  (5) 
{"is_sidechain": false}

>  <CID>  (5) 
Z1127203562

>  <pose_index>  (5) 
8

>  <docking_score>  (5) 
-8.08

>  <rmsd_to_best_selected>  (5) 
1.4471314492694414

>  <MWT>  (5) 
342.44299999999964

>  <TPSA>  (5) 
78.09

>  <logP>  (5) 
3.0333000000000014

>  <HBD>  (5) 
2

>  <HBA>  (5) 
3

>  <SMILES>  (5) 
[H]c1c([H])c([H])c2c(=O)n([H])c(C([H])([H])N(C(=O)N([H])C([H])([H])C3([H])C([H])([H])C([H])([H])C([H])([H])C3([H])[H])C([H])(C([H])([H])[H])C([H])([H])[H])nc2c1[H]

$$$$
