Z1198960055_pose4
     RDKit          3D

 42 45  0  0  0  0  0  0  0  0999 V2000
   -1.6314   44.2444   54.4987 O   0  0  0  0  0  0  0  0  0  0  0  0
   -0.5481   44.7856   54.3545 C   0  0  0  0  0  0  0  0  0  0  0  0
    0.6484   44.2408   53.5643 C   0  0  0  0  0  0  0  0  0  0  0  0
    1.6675   45.3242   53.7503 C   0  0  0  0  0  0  0  0  0  0  0  0
    2.9645   45.4158   53.2759 C   0  0  0  0  0  0  0  0  0  0  0  0
    3.7203   46.5559   53.6006 C   0  0  0  0  0  0  0  0  0  0  0  0
    5.0369   46.6001   53.1009 N   0  0  0  0  0  0  0  0  0  0  0  0
    6.1871   46.0809   53.6615 C   0  0  0  0  0  0  0  0  0  0  0  0
    6.2570   45.5015   54.7398 O   0  0  0  0  0  0  0  0  0  0  0  0
    7.4516   46.2649   52.8680 C   0  0  0  0  0  0  0  0  0  0  0  0
    7.9605   47.5715   52.7701 C   0  0  0  0  0  0  0  0  0  0  0  0
    9.1283   47.8370   52.0534 C   0  0  0  0  0  0  0  0  0  0  0  0
    9.8033   46.8005   51.4186 C   0  0  0  0  0  0  0  0  0  0  0  0
    9.3195   45.4955   51.5084 C   0  0  0  0  0  0  0  0  0  0  0  0
    8.1609   45.2190   52.2475 C   0  0  0  0  0  0  0  0  0  0  0  0
    7.6763   43.9359   52.3143 O   0  0  0  0  0  0  0  0  0  0  0  0
    7.0275   43.5134   51.1083 C   0  0  0  0  0  0  0  0  0  0  0  0
    7.8028   42.3528   50.5606 C   0  0  0  0  0  0  0  0  0  0  0  0
    8.8019   42.5553   49.4495 C   0  0  0  0  0  0  0  0  0  0  0  0
    7.5159   41.8205   49.1792 C   0  0  0  0  0  0  0  0  0  0  0  0
    3.1492   47.5700   54.3943 C   0  0  0  0  0  0  0  0  0  0  0  0
    1.8352   47.4677   54.8704 C   0  0  0  0  0  0  0  0  0  0  0  0
    1.1252   46.3390   54.5327 C   0  0  0  0  0  0  0  0  0  0  0  0
   -0.1758   46.0166   54.8824 N   0  0  0  0  0  0  0  0  0  0  0  0
    1.0005   43.2856   53.9811 H   0  0  0  0  0  0  0  0  0  0  0  0
    0.4207   44.0237   52.5102 H   0  0  0  0  0  0  0  0  0  0  0  0
    3.3947   44.6137   52.6581 H   0  0  0  0  0  0  0  0  0  0  0  0
    5.1553   47.0637   52.2047 H   0  0  0  0  0  0  0  0  0  0  0  0
    7.4301   48.3977   53.2661 H   0  0  0  0  0  0  0  0  0  0  0  0
    9.5141   48.8652   51.9908 H   0  0  0  0  0  0  0  0  0  0  0  0
   10.7188   47.0096   50.8457 H   0  0  0  0  0  0  0  0  0  0  0  0
    9.8498   44.6790   50.9965 H   0  0  0  0  0  0  0  0  0  0  0  0
    5.9943   43.2052   51.3261 H   0  0  0  0  0  0  0  0  0  0  0  0
    6.9945   44.3356   50.3783 H   0  0  0  0  0  0  0  0  0  0  0  0
    7.8379   41.9175   51.5701 H   0  0  0  0  0  0  0  0  0  0  0  0
    8.9604   43.5592   49.0288 H   0  0  0  0  0  0  0  0  0  0  0  0
    9.8698   42.3293   49.3135 H   0  0  0  0  0  0  0  0  0  0  0  0
    6.7351   42.2877   48.5610 H   0  0  0  0  0  0  0  0  0  0  0  0
    7.2555   40.8357   48.7639 H   0  0  0  0  0  0  0  0  0  0  0  0
    3.7461   48.4592   54.6451 H   0  0  0  0  0  0  0  0  0  0  0  0
    1.3889   48.2593   55.4902 H   0  0  0  0  0  0  0  0  0  0  0  0
   -0.7927   46.5806   55.4472 H   0  0  0  0  0  0  0  0  0  0  0  0
  1  2  2  0
  2  3  1  0
  3  4  1  0
  4  5  2  0
  5  6  1  0
  6  7  1  0
  7  8  1  0
  8  9  2  0
  8 10  1  0
 10 11  2  0
 11 12  1  0
 12 13  2  0
 13 14  1  0
 14 15  2  0
 15 16  1  0
 16 17  1  0
 17 18  1  0
 18 19  1  0
 19 20  1  0
  6 21  2  0
 21 22  1  0
 22 23  2  0
 23 24  1  0
 24  2  1  0
 23  4  1  0
 15 10  1  0
 20 18  1  0
  3 25  1  0
  3 26  1  0
  5 27  1  0
  7 28  1  0
 11 29  1  0
 12 30  1  0
 13 31  1  0
 14 32  1  0
 17 33  1  0
 17 34  1  0
 18 35  1  0
 19 36  1  0
 19 37  1  0
 20 38  1  0
 20 39  1  0
 21 40  1  0
 22 41  1  0
 24 42  1  0
M  END
>  <meeko>  (1) 
{"is_sidechain": false}

>  <CID>  (1) 
Z1198960055

>  <pose_index>  (1) 
4

>  <docking_score>  (1) 
-8.909

>  <rmsd_to_best_selected>  (1) 
1.8679533461803104

>  <MWT>  (1) 
322.3639999999997

>  <TPSA>  (1) 
67.43

>  <logP>  (1) 
3.2223000000000015

>  <HBD>  (1) 
2

>  <HBA>  (1) 
3

>  <SMILES>  (1) 
[H]c1c([H])c([H])c(C(=O)N([H])c2c([H])c([H])c3c(c2[H])C([H])([H])C(=O)N3[H])c(OC([H])([H])C2([H])C([H])([H])C2([H])[H])c1[H]

$$$$
Z1198960055_pose2
     RDKit          3D

 42 45  0  0  0  0  0  0  0  0999 V2000
   -1.3345   43.9057   53.8227 O   0  0  0  0  0  0  0  0  0  0  0  0
   -0.2245   44.4094   53.8266 C   0  0  0  0  0  0  0  0  0  0  0  0
    1.0008   43.9269   53.0403 C   0  0  0  0  0  0  0  0  0  0  0  0
    2.0467   44.9209   53.4446 C   0  0  0  0  0  0  0  0  0  0  0  0
    3.3758   45.0173   53.0689 C   0  0  0  0  0  0  0  0  0  0  0  0
    4.1516   46.0607   53.6018 C   0  0  0  0  0  0  0  0  0  0  0  0
    5.4987   46.1132   53.1964 N   0  0  0  0  0  0  0  0  0  0  0  0
    6.1866   47.1707   52.6359 C   0  0  0  0  0  0  0  0  0  0  0  0
    5.7109   48.2677   52.3621 O   0  0  0  0  0  0  0  0  0  0  0  0
    7.6409   46.9296   52.3312 C   0  0  0  0  0  0  0  0  0  0  0  0
    8.5803   47.6162   53.1195 C   0  0  0  0  0  0  0  0  0  0  0  0
    9.9504   47.4553   52.9098 C   0  0  0  0  0  0  0  0  0  0  0  0
   10.4033   46.6091   51.9036 C   0  0  0  0  0  0  0  0  0  0  0  0
    9.4871   45.9126   51.1144 C   0  0  0  0  0  0  0  0  0  0  0  0
    8.1110   46.0514   51.3379 C   0  0  0  0  0  0  0  0  0  0  0  0
    7.2141   45.3800   50.5432 O   0  0  0  0  0  0  0  0  0  0  0  0
    7.7089   44.1211   50.0718 C   0  0  0  0  0  0  0  0  0  0  0  0
    6.5332   43.2065   49.9055 C   0  0  0  0  0  0  0  0  0  0  0  0
    5.5960   42.9470   51.0566 C   0  0  0  0  0  0  0  0  0  0  0  0
    6.5113   41.8544   50.5717 C   0  0  0  0  0  0  0  0  0  0  0  0
    3.5669   46.9773   54.4990 C   0  0  0  0  0  0  0  0  0  0  0  0
    2.2209   46.8711   54.8734 C   0  0  0  0  0  0  0  0  0  0  0  0
    1.4923   45.8383   54.3314 C   0  0  0  0  0  0  0  0  0  0  0  0
    0.1593   45.5324   54.5502 N   0  0  0  0  0  0  0  0  0  0  0  0
    1.2863   42.9058   53.3334 H   0  0  0  0  0  0  0  0  0  0  0  0
    0.8366   43.8755   51.9538 H   0  0  0  0  0  0  0  0  0  0  0  0
    3.8152   44.2923   52.3679 H   0  0  0  0  0  0  0  0  0  0  0  0
    6.0416   45.2666   53.3457 H   0  0  0  0  0  0  0  0  0  0  0  0
    8.2300   48.2911   53.9143 H   0  0  0  0  0  0  0  0  0  0  0  0
   10.6713   47.9971   53.5397 H   0  0  0  0  0  0  0  0  0  0  0  0
   11.4828   46.4889   51.7298 H   0  0  0  0  0  0  0  0  0  0  0  0
    9.8473   45.2511   50.3127 H   0  0  0  0  0  0  0  0  0  0  0  0
    8.2187   44.2560   49.1065 H   0  0  0  0  0  0  0  0  0  0  0  0
    8.4304   43.6974   50.7858 H   0  0  0  0  0  0  0  0  0  0  0  0
    6.4171   43.5665   48.8726 H   0  0  0  0  0  0  0  0  0  0  0  0
    5.7769   43.4238   52.0313 H   0  0  0  0  0  0  0  0  0  0  0  0
    4.5110   43.0405   51.2122 H   0  0  0  0  0  0  0  0  0  0  0  0
    7.3610   41.5332   51.1920 H   0  0  0  0  0  0  0  0  0  0  0  0
    6.3721   40.8194   50.2263 H   0  0  0  0  0  0  0  0  0  0  0  0
    4.1793   47.7917   54.9133 H   0  0  0  0  0  0  0  0  0  0  0  0
    1.7647   47.5862   55.5737 H   0  0  0  0  0  0  0  0  0  0  0  0
   -0.4718   46.0385   55.1520 H   0  0  0  0  0  0  0  0  0  0  0  0
  1  2  2  0
  2  3  1  0
  3  4  1  0
  4  5  2  0
  5  6  1  0
  6  7  1  0
  7  8  1  0
  8  9  2  0
  8 10  1  0
 10 11  2  0
 11 12  1  0
 12 13  2  0
 13 14  1  0
 14 15  2  0
 15 16  1  0
 16 17  1  0
 17 18  1  0
 18 19  1  0
 19 20  1  0
  6 21  2  0
 21 22  1  0
 22 23  2  0
 23 24  1  0
 24  2  1  0
 23  4  1  0
 15 10  1  0
 20 18  1  0
  3 25  1  0
  3 26  1  0
  5 27  1  0
  7 28  1  0
 11 29  1  0
 12 30  1  0
 13 31  1  0
 14 32  1  0
 17 33  1  0
 17 34  1  0
 18 35  1  0
 19 36  1  0
 19 37  1  0
 20 38  1  0
 20 39  1  0
 21 40  1  0
 22 41  1  0
 24 42  1  0
M  END
>  <meeko>  (2) 
{"is_sidechain": false}

>  <CID>  (2) 
Z1198960055

>  <pose_index>  (2) 
2

>  <docking_score>  (2) 
-9.188

>  <rmsd_to_best_selected>  (2) 
0.0

>  <MWT>  (2) 
322.3639999999997

>  <TPSA>  (2) 
67.43

>  <logP>  (2) 
3.2223000000000015

>  <HBD>  (2) 
2

>  <HBA>  (2) 
3

>  <SMILES>  (2) 
[H]c1c([H])c([H])c(C(=O)N([H])c2c([H])c([H])c3c(c2[H])C([H])([H])C(=O)N3[H])c(OC([H])([H])C2([H])C([H])([H])C2([H])[H])c1[H]

$$$$
Z1198960055_pose5
     RDKit          3D

 42 45  0  0  0  0  0  0  0  0999 V2000
   -1.2305   43.8387   53.5043 O   0  0  0  0  0  0  0  0  0  0  0  0
   -0.1235   44.3445   53.5767 C   0  0  0  0  0  0  0  0  0  0  0  0
    1.1427   43.8841   52.8440 C   0  0  0  0  0  0  0  0  0  0  0  0
    2.1624   44.8721   53.3257 C   0  0  0  0  0  0  0  0  0  0  0  0
    3.5080   44.9808   53.0224 C   0  0  0  0  0  0  0  0  0  0  0  0
    4.2512   46.0131   53.6193 C   0  0  0  0  0  0  0  0  0  0  0  0
    5.6175   46.0791   53.2854 N   0  0  0  0  0  0  0  0  0  0  0  0
    6.2229   46.8178   52.2880 C   0  0  0  0  0  0  0  0  0  0  0  0
    5.6451   47.5400   51.4823 O   0  0  0  0  0  0  0  0  0  0  0  0
    7.7201   46.7023   52.1939 C   0  0  0  0  0  0  0  0  0  0  0  0
    8.4301   47.8654   51.8509 C   0  0  0  0  0  0  0  0  0  0  0  0
    9.8216   47.8525   51.7387 C   0  0  0  0  0  0  0  0  0  0  0  0
   10.5245   46.6731   51.9639 C   0  0  0  0  0  0  0  0  0  0  0  0
    9.8391   45.5089   52.3118 C   0  0  0  0  0  0  0  0  0  0  0  0
    8.4448   45.5228   52.4497 C   0  0  0  0  0  0  0  0  0  0  0  0
    7.7739   44.3687   52.7715 O   0  0  0  0  0  0  0  0  0  0  0  0
    7.6880   43.4423   51.6807 C   0  0  0  0  0  0  0  0  0  0  0  0
    6.2362   43.2499   51.3636 C   0  0  0  0  0  0  0  0  0  0  0  0
    5.8132   42.3842   50.2050 C   0  0  0  0  0  0  0  0  0  0  0  0
    5.6289   43.8753   50.1340 C   0  0  0  0  0  0  0  0  0  0  0  0
    3.6172   46.9074   54.5056 C   0  0  0  0  0  0  0  0  0  0  0  0
    2.2542   46.7876   54.8078 C   0  0  0  0  0  0  0  0  0  0  0  0
    1.5586   45.7660   54.2045 C   0  0  0  0  0  0  0  0  0  0  0  0
    0.2171   45.4517   54.3459 N   0  0  0  0  0  0  0  0  0  0  0  0
    1.4168   42.8572   53.1277 H   0  0  0  0  0  0  0  0  0  0  0  0
    1.0353   43.8575   51.7496 H   0  0  0  0  0  0  0  0  0  0  0  0
    3.9860   44.2737   52.3284 H   0  0  0  0  0  0  0  0  0  0  0  0
    6.2428   45.5206   53.8596 H   0  0  0  0  0  0  0  0  0  0  0  0
    7.8809   48.8008   51.6681 H   0  0  0  0  0  0  0  0  0  0  0  0
   10.3614   48.7733   51.4726 H   0  0  0  0  0  0  0  0  0  0  0  0
   11.6202   46.6586   51.8677 H   0  0  0  0  0  0  0  0  0  0  0  0
   10.3962   44.5752   52.4788 H   0  0  0  0  0  0  0  0  0  0  0  0
    8.2133   43.8466   50.8029 H   0  0  0  0  0  0  0  0  0  0  0  0
    8.1551   42.4835   51.9501 H   0  0  0  0  0  0  0  0  0  0  0  0
    6.0126   43.2744   52.4404 H   0  0  0  0  0  0  0  0  0  0  0  0
    6.5732   41.8938   49.5790 H   0  0  0  0  0  0  0  0  0  0  0  0
    5.1526   41.5127   50.0864 H   0  0  0  0  0  0  0  0  0  0  0  0
    6.2541   44.4750   49.4562 H   0  0  0  0  0  0  0  0  0  0  0  0
    4.7778   44.5453   49.9421 H   0  0  0  0  0  0  0  0  0  0  0  0
    4.2036   47.7147   54.9687 H   0  0  0  0  0  0  0  0  0  0  0  0
    1.7595   47.4839   55.5009 H   0  0  0  0  0  0  0  0  0  0  0  0
   -0.4461   45.9411   54.9269 H   0  0  0  0  0  0  0  0  0  0  0  0
  1  2  2  0
  2  3  1  0
  3  4  1  0
  4  5  2  0
  5  6  1  0
  6  7  1  0
  7  8  1  0
  8  9  2  0
  8 10  1  0
 10 11  2  0
 11 12  1  0
 12 13  2  0
 13 14  1  0
 14 15  2  0
 15 16  1  0
 16 17  1  0
 17 18  1  0
 18 19  1  0
 19 20  1  0
  6 21  2  0
 21 22  1  0
 22 23  2  0
 23 24  1  0
 24  2  1  0
 23  4  1  0
 15 10  1  0
 20 18  1  0
  3 25  1  0
  3 26  1  0
  5 27  1  0
  7 28  1  0
 11 29  1  0
 12 30  1  0
 13 31  1  0
 14 32  1  0
 17 33  1  0
 17 34  1  0
 18 35  1  0
 19 36  1  0
 19 37  1  0
 20 38  1  0
 20 39  1  0
 21 40  1  0
 22 41  1  0
 24 42  1  0
M  END
>  <meeko>  (3) 
{"is_sidechain": false}

>  <CID>  (3) 
Z1198960055

>  <pose_index>  (3) 
5

>  <docking_score>  (3) 
-8.503

>  <rmsd_to_best_selected>  (3) 
1.3208002214937486

>  <MWT>  (3) 
322.3639999999997

>  <TPSA>  (3) 
67.43

>  <logP>  (3) 
3.2223000000000015

>  <HBD>  (3) 
2

>  <HBA>  (3) 
3

>  <SMILES>  (3) 
[H]c1c([H])c([H])c(C(=O)N([H])c2c([H])c([H])c3c(c2[H])C([H])([H])C(=O)N3[H])c(OC([H])([H])C2([H])C([H])([H])C2([H])[H])c1[H]

$$$$
Z1198960055_pose7
     RDKit          3D

 42 45  0  0  0  0  0  0  0  0999 V2000
   -1.5312   44.7338   52.9465 O   0  0  0  0  0  0  0  0  0  0  0  0
   -0.3561   44.9712   53.1719 C   0  0  0  0  0  0  0  0  0  0  0  0
    0.8059   44.8628   52.1775 C   0  0  0  0  0  0  0  0  0  0  0  0
    1.9784   45.2685   53.0191 C   0  0  0  0  0  0  0  0  0  0  0  0
    3.3192   45.3679   52.6868 C   0  0  0  0  0  0  0  0  0  0  0  0
    4.2284   45.7775   53.6777 C   0  0  0  0  0  0  0  0  0  0  0  0
    5.5808   45.8579   53.2943 N   0  0  0  0  0  0  0  0  0  0  0  0
    6.3852   46.9771   53.2104 C   0  0  0  0  0  0  0  0  0  0  0  0
    6.0309   48.1295   53.4346 O   0  0  0  0  0  0  0  0  0  0  0  0
    7.8110   46.7384   52.7948 C   0  0  0  0  0  0  0  0  0  0  0  0
    8.8146   47.1470   53.6907 C   0  0  0  0  0  0  0  0  0  0  0  0
   10.1654   46.9666   53.3898 C   0  0  0  0  0  0  0  0  0  0  0  0
   10.5345   46.3801   52.1839 C   0  0  0  0  0  0  0  0  0  0  0  0
    9.5548   45.9625   51.2830 C   0  0  0  0  0  0  0  0  0  0  0  0
    8.1965   46.1174   51.5916 C   0  0  0  0  0  0  0  0  0  0  0  0
    7.2363   45.7245   50.6918 O   0  0  0  0  0  0  0  0  0  0  0  0
    7.5023   44.4424   50.1069 C   0  0  0  0  0  0  0  0  0  0  0  0
    6.7344   43.4200   50.8901 C   0  0  0  0  0  0  0  0  0  0  0  0
    6.3978   42.0838   50.2802 C   0  0  0  0  0  0  0  0  0  0  0  0
    5.3076   43.0916   50.5323 C   0  0  0  0  0  0  0  0  0  0  0  0
    3.7623   46.0749   54.9737 C   0  0  0  0  0  0  0  0  0  0  0  0
    2.4034   45.9700   55.2993 C   0  0  0  0  0  0  0  0  0  0  0  0
    1.5422   45.5664   54.3051 C   0  0  0  0  0  0  0  0  0  0  0  0
    0.1715   45.3915   54.3877 N   0  0  0  0  0  0  0  0  0  0  0  0
    0.9184   43.8338   51.8055 H   0  0  0  0  0  0  0  0  0  0  0  0
    0.6750   45.4780   51.2751 H   0  0  0  0  0  0  0  0  0  0  0  0
    3.6651   45.1315   51.6697 H   0  0  0  0  0  0  0  0  0  0  0  0
    6.0297   44.9761   53.0611 H   0  0  0  0  0  0  0  0  0  0  0  0
    8.5306   47.6164   54.6441 H   0  0  0  0  0  0  0  0  0  0  0  0
   10.9368   47.2877   54.1051 H   0  0  0  0  0  0  0  0  0  0  0  0
   11.5988   46.2456   51.9406 H   0  0  0  0  0  0  0  0  0  0  0  0
    9.8499   45.5092   50.3252 H   0  0  0  0  0  0  0  0  0  0  0  0
    7.1754   44.4339   49.0567 H   0  0  0  0  0  0  0  0  0  0  0  0
    8.5795   44.2210   50.1336 H   0  0  0  0  0  0  0  0  0  0  0  0
    7.2504   43.7516   51.8032 H   0  0  0  0  0  0  0  0  0  0  0  0
    6.7083   41.8557   49.2499 H   0  0  0  0  0  0  0  0  0  0  0  0
    6.5677   41.0346   50.5639 H   0  0  0  0  0  0  0  0  0  0  0  0
    4.8219   43.5997   49.6861 H   0  0  0  0  0  0  0  0  0  0  0  0
    4.3515   43.0835   51.0763 H   0  0  0  0  0  0  0  0  0  0  0  0
    4.4787   46.3955   55.7444 H   0  0  0  0  0  0  0  0  0  0  0  0
    2.0391   46.2014   56.3111 H   0  0  0  0  0  0  0  0  0  0  0  0
   -0.3947   45.5382   55.2100 H   0  0  0  0  0  0  0  0  0  0  0  0
  1  2  2  0
  2  3  1  0
  3  4  1  0
  4  5  2  0
  5  6  1  0
  6  7  1  0
  7  8  1  0
  8  9  2  0
  8 10  1  0
 10 11  2  0
 11 12  1  0
 12 13  2  0
 13 14  1  0
 14 15  2  0
 15 16  1  0
 16 17  1  0
 17 18  1  0
 18 19  1  0
 19 20  1  0
  6 21  2  0
 21 22  1  0
 22 23  2  0
 23 24  1  0
 24  2  1  0
 23  4  1  0
 15 10  1  0
 20 18  1  0
  3 25  1  0
  3 26  1  0
  5 27  1  0
  7 28  1  0
 11 29  1  0
 12 30  1  0
 13 31  1  0
 14 32  1  0
 17 33  1  0
 17 34  1  0
 18 35  1  0
 19 36  1  0
 19 37  1  0
 20 38  1  0
 20 39  1  0
 21 40  1  0
 22 41  1  0
 24 42  1  0
M  END
>  <meeko>  (4) 
{"is_sidechain": false}

>  <CID>  (4) 
Z1198960055

>  <pose_index>  (4) 
7

>  <docking_score>  (4) 
-8.053

>  <rmsd_to_best_selected>  (4) 
0.8104164971214891

>  <MWT>  (4) 
322.3639999999997

>  <TPSA>  (4) 
67.43

>  <logP>  (4) 
3.2223000000000015

>  <HBD>  (4) 
2

>  <HBA>  (4) 
3

>  <SMILES>  (4) 
[H]c1c([H])c([H])c(C(=O)N([H])c2c([H])c([H])c3c(c2[H])C([H])([H])C(=O)N3[H])c(OC([H])([H])C2([H])C([H])([H])C2([H])[H])c1[H]

$$$$
Z1198960055_pose8
     RDKit          3D

 42 45  0  0  0  0  0  0  0  0999 V2000
   -1.3904   44.3955   53.0201 O   0  0  0  0  0  0  0  0  0  0  0  0
   -0.2452   44.7609   53.2225 C   0  0  0  0  0  0  0  0  0  0  0  0
    0.9161   44.7248   52.2220 C   0  0  0  0  0  0  0  0  0  0  0  0
    2.0465   45.2853   53.0310 C   0  0  0  0  0  0  0  0  0  0  0  0
    3.3678   45.5049   52.6807 C   0  0  0  0  0  0  0  0  0  0  0  0
    4.2368   46.0498   53.6417 C   0  0  0  0  0  0  0  0  0  0  0  0
    5.5723   46.2483   53.2406 N   0  0  0  0  0  0  0  0  0  0  0  0
    6.7061   45.5898   53.6730 C   0  0  0  0  0  0  0  0  0  0  0  0
    6.7403   44.7123   54.5298 O   0  0  0  0  0  0  0  0  0  0  0  0
    8.0007   46.0099   53.0319 C   0  0  0  0  0  0  0  0  0  0  0  0
    8.4116   47.3390   53.2316 C   0  0  0  0  0  0  0  0  0  0  0  0
    9.5980   47.8171   52.6752 C   0  0  0  0  0  0  0  0  0  0  0  0
   10.3912   46.9745   51.9027 C   0  0  0  0  0  0  0  0  0  0  0  0
   10.0046   45.6500   51.6967 C   0  0  0  0  0  0  0  0  0  0  0  0
    8.8270   45.1576   52.2747 C   0  0  0  0  0  0  0  0  0  0  0  0
    8.4408   43.8594   52.0511 O   0  0  0  0  0  0  0  0  0  0  0  0
    7.8671   43.6564   50.7532 C   0  0  0  0  0  0  0  0  0  0  0  0
    6.4428   43.2319   50.9493 C   0  0  0  0  0  0  0  0  0  0  0  0
    5.7046   42.4987   49.8590 C   0  0  0  0  0  0  0  0  0  0  0  0
    5.3263   43.9153   50.2024 C   0  0  0  0  0  0  0  0  0  0  0  0
    3.7510   46.3561   54.9283 C   0  0  0  0  0  0  0  0  0  0  0  0
    2.4124   46.1297   55.2738 C   0  0  0  0  0  0  0  0  0  0  0  0
    1.5900   45.5959   54.3081 C   0  0  0  0  0  0  0  0  0  0  0  0
    0.2445   45.2873   54.4123 N   0  0  0  0  0  0  0  0  0  0  0  0
    1.1303   43.6962   51.8960 H   0  0  0  0  0  0  0  0  0  0  0  0
    0.7179   45.2814   51.2941 H   0  0  0  0  0  0  0  0  0  0  0  0
    3.7298   45.2582   51.6717 H   0  0  0  0  0  0  0  0  0  0  0  0
    5.7209   46.9607   52.5310 H   0  0  0  0  0  0  0  0  0  0  0  0
    7.7874   48.0132   53.8365 H   0  0  0  0  0  0  0  0  0  0  0  0
    9.9061   48.8590   52.8468 H   0  0  0  0  0  0  0  0  0  0  0  0
   11.3222   47.3522   51.4550 H   0  0  0  0  0  0  0  0  0  0  0  0
   10.6278   44.9885   51.0771 H   0  0  0  0  0  0  0  0  0  0  0  0
    7.9037   44.5922   50.1762 H   0  0  0  0  0  0  0  0  0  0  0  0
    8.4266   42.8883   50.1991 H   0  0  0  0  0  0  0  0  0  0  0  0
    6.6630   43.0356   52.0090 H   0  0  0  0  0  0  0  0  0  0  0  0
    6.2077   42.2796   48.9056 H   0  0  0  0  0  0  0  0  0  0  0  0
    5.1633   41.5435   49.7930 H   0  0  0  0  0  0  0  0  0  0  0  0
    5.5531   44.7308   49.4998 H   0  0  0  0  0  0  0  0  0  0  0  0
    4.3942   44.4231   50.4910 H   0  0  0  0  0  0  0  0  0  0  0  0
    4.4363   46.7814   55.6763 H   0  0  0  0  0  0  0  0  0  0  0  0
    2.0333   46.3694   56.2783 H   0  0  0  0  0  0  0  0  0  0  0  0
   -0.3279   45.4127   55.2333 H   0  0  0  0  0  0  0  0  0  0  0  0
  1  2  2  0
  2  3  1  0
  3  4  1  0
  4  5  2  0
  5  6  1  0
  6  7  1  0
  7  8  1  0
  8  9  2  0
  8 10  1  0
 10 11  2  0
 11 12  1  0
 12 13  2  0
 13 14  1  0
 14 15  2  0
 15 16  1  0
 16 17  1  0
 17 18  1  0
 18 19  1  0
 19 20  1  0
  6 21  2  0
 21 22  1  0
 22 23  2  0
 23 24  1  0
 24  2  1  0
 23  4  1  0
 15 10  1  0
 20 18  1  0
  3 25  1  0
  3 26  1  0
  5 27  1  0
  7 28  1  0
 11 29  1  0
 12 30  1  0
 13 31  1  0
 14 32  1  0
 17 33  1  0
 17 34  1  0
 18 35  1  0
 19 36  1  0
 19 37  1  0
 20 38  1  0
 20 39  1  0
 21 40  1  0
 22 41  1  0
 24 42  1  0
M  END
>  <meeko>  (5) 
{"is_sidechain": false}

>  <CID>  (5) 
Z1198960055

>  <pose_index>  (5) 
8

>  <docking_score>  (5) 
-7.974

>  <rmsd_to_best_selected>  (5) 
1.3883945347965758

>  <MWT>  (5) 
322.3639999999997

>  <TPSA>  (5) 
67.43

>  <logP>  (5) 
3.2223000000000015

>  <HBD>  (5) 
2

>  <HBA>  (5) 
3

>  <SMILES>  (5) 
[H]c1c([H])c([H])c(C(=O)N([H])c2c([H])c([H])c3c(c2[H])C([H])([H])C(=O)N3[H])c(OC([H])([H])C2([H])C([H])([H])C2([H])[H])c1[H]

$$$$
Z1198960055_pose9
     RDKit          3D

 42 45  0  0  0  0  0  0  0  0999 V2000
   -1.8654   45.0538   53.6297 O   0  0  0  0  0  0  0  0  0  0  0  0
   -0.6905   45.3442   53.7784 C   0  0  0  0  0  0  0  0  0  0  0  0
    0.4135   45.2610   52.7164 C   0  0  0  0  0  0  0  0  0  0  0  0
    1.6169   45.7326   53.4750 C   0  0  0  0  0  0  0  0  0  0  0  0
    2.9284   45.8807   53.0601 C   0  0  0  0  0  0  0  0  0  0  0  0
    3.8787   46.3482   53.9838 C   0  0  0  0  0  0  0  0  0  0  0  0
    5.2010   46.4758   53.5172 N   0  0  0  0  0  0  0  0  0  0  0  0
    6.2693   45.6250   53.7193 C   0  0  0  0  0  0  0  0  0  0  0  0
    6.2466   44.5973   54.3886 O   0  0  0  0  0  0  0  0  0  0  0  0
    7.5636   46.0183   53.0617 C   0  0  0  0  0  0  0  0  0  0  0  0
    8.2248   47.1466   53.5776 C   0  0  0  0  0  0  0  0  0  0  0  0
    9.4308   47.5866   53.0315 C   0  0  0  0  0  0  0  0  0  0  0  0
    9.9929   46.9078   51.9553 C   0  0  0  0  0  0  0  0  0  0  0  0
    9.3572   45.7826   51.4320 C   0  0  0  0  0  0  0  0  0  0  0  0
    8.1578   45.3212   51.9931 C   0  0  0  0  0  0  0  0  0  0  0  0
    7.5250   44.2255   51.4603 O   0  0  0  0  0  0  0  0  0  0  0  0
    8.3611   43.4625   50.5804 C   0  0  0  0  0  0  0  0  0  0  0  0
    7.6049   43.2598   49.3018 C   0  0  0  0  0  0  0  0  0  0  0  0
    6.2438   42.6116   49.3120 C   0  0  0  0  0  0  0  0  0  0  0  0
    7.4209   41.8777   48.7285 C   0  0  0  0  0  0  0  0  0  0  0  0
    3.4792   46.6546   55.3003 C   0  0  0  0  0  0  0  0  0  0  0  0
    2.1487   46.5013   55.7115 C   0  0  0  0  0  0  0  0  0  0  0  0
    1.2468   46.0412   54.7806 C   0  0  0  0  0  0  0  0  0  0  0  0
   -0.1081   45.8119   54.9499 N   0  0  0  0  0  0  0  0  0  0  0  0
    0.5463   44.2293   52.3588 H   0  0  0  0  0  0  0  0  0  0  0  0
    0.2022   45.8504   51.8119 H   0  0  0  0  0  0  0  0  0  0  0  0
    3.2214   45.6374   52.0281 H   0  0  0  0  0  0  0  0  0  0  0  0
    5.3935   47.2935   52.9447 H   0  0  0  0  0  0  0  0  0  0  0  0
    7.7841   47.6914   54.4255 H   0  0  0  0  0  0  0  0  0  0  0  0
    9.9364   48.4688   53.4513 H   0  0  0  0  0  0  0  0  0  0  0  0
   10.9389   47.2588   51.5170 H   0  0  0  0  0  0  0  0  0  0  0  0
    9.7989   45.2541   50.5744 H   0  0  0  0  0  0  0  0  0  0  0  0
    9.2947   44.0093   50.3817 H   0  0  0  0  0  0  0  0  0  0  0  0
    8.6197   42.4947   51.0347 H   0  0  0  0  0  0  0  0  0  0  0  0
    8.0130   44.2097   48.9260 H   0  0  0  0  0  0  0  0  0  0  0  0
    5.8021   42.2754   50.2616 H   0  0  0  0  0  0  0  0  0  0  0  0
    5.2453   42.8943   48.9473 H   0  0  0  0  0  0  0  0  0  0  0  0
    7.8392   41.0053   49.2517 H   0  0  0  0  0  0  0  0  0  0  0  0
    7.6386   41.4022   47.7608 H   0  0  0  0  0  0  0  0  0  0  0  0
    4.2268   47.0212   56.0191 H   0  0  0  0  0  0  0  0  0  0  0  0
    1.8373   46.7398   56.7392 H   0  0  0  0  0  0  0  0  0  0  0  0
   -0.6282   45.9532   55.8028 H   0  0  0  0  0  0  0  0  0  0  0  0
  1  2  2  0
  2  3  1  0
  3  4  1  0
  4  5  2  0
  5  6  1  0
  6  7  1  0
  7  8  1  0
  8  9  2  0
  8 10  1  0
 10 11  2  0
 11 12  1  0
 12 13  2  0
 13 14  1  0
 14 15  2  0
 15 16  1  0
 16 17  1  0
 17 18  1  0
 18 19  1  0
 19 20  1  0
  6 21  2  0
 21 22  1  0
 22 23  2  0
 23 24  1  0
 24  2  1  0
 23  4  1  0
 15 10  1  0
 20 18  1  0
  3 25  1  0
  3 26  1  0
  5 27  1  0
  7 28  1  0
 11 29  1  0
 12 30  1  0
 13 31  1  0
 14 32  1  0
 17 33  1  0
 17 34  1  0
 18 35  1  0
 19 36  1  0
 19 37  1  0
 20 38  1  0
 20 39  1  0
 21 40  1  0
 22 41  1  0
 24 42  1  0
M  END
>  <meeko>  (6) 
{"is_sidechain": false}

>  <CID>  (6) 
Z1198960055

>  <pose_index>  (6) 
9

>  <docking_score>  (6) 
-7.727

>  <rmsd_to_best_selected>  (6) 
1.3821130597564133

>  <MWT>  (6) 
322.3639999999997

>  <TPSA>  (6) 
67.43

>  <logP>  (6) 
3.2223000000000015

>  <HBD>  (6) 
2

>  <HBA>  (6) 
3

>  <SMILES>  (6) 
[H]c1c([H])c([H])c(C(=O)N([H])c2c([H])c([H])c3c(c2[H])C([H])([H])C(=O)N3[H])c(OC([H])([H])C2([H])C([H])([H])C2([H])[H])c1[H]

$$$$
