Z16226176_pose3
     RDKit          3D

 45 48  0  0  0  0  0  0  0  0999 V2000
    4.2366   48.1701   52.2454 O   0  0  0  0  0  0  0  0  0  0  0  0
    4.3077   47.2494   53.0580 C   0  0  0  0  0  0  0  0  0  0  0  0
    3.2064   46.2154   53.2073 C   0  0  0  0  0  0  0  0  0  0  0  0
    2.3126   45.9957   51.6420 S   0  0  0  0  0  0  0  0  0  0  0  0
    2.2625   44.2774   51.5235 C   0  0  0  0  0  0  0  0  0  0  0  0
    1.2068   43.4987   51.7032 N   0  0  0  0  0  0  0  0  0  0  0  0
    1.5963   42.1719   51.5033 N   0  0  0  0  0  0  0  0  0  0  0  0
    2.8672   42.2049   51.1991 C   0  0  0  0  0  0  0  0  0  0  0  0
    3.8857   41.3657   50.8974 N   0  0  0  0  0  0  0  0  0  0  0  0
    5.0444   42.1671   50.8374 C   0  0  0  0  0  0  0  0  0  0  0  0
    6.3428   41.8182   50.5580 C   0  0  0  0  0  0  0  0  0  0  0  0
    7.2854   42.8545   50.4912 C   0  0  0  0  0  0  0  0  0  0  0  0
    6.9142   44.2070   50.6781 C   0  0  0  0  0  0  0  0  0  0  0  0
    5.5903   44.5677   50.9325 C   0  0  0  0  0  0  0  0  0  0  0  0
    4.6934   43.5288   50.9948 C   0  0  0  0  0  0  0  0  0  0  0  0
    3.3291   43.4969   51.2324 N   0  0  0  0  0  0  0  0  0  0  0  0
    5.3870   47.0620   53.8992 N   0  0  0  0  0  0  0  0  0  0  0  0
    6.4653   48.0274   53.9432 C   0  0  0  0  0  0  0  0  0  0  0  0
    7.7977   47.4877   53.4032 C   0  0  0  0  0  0  0  0  0  0  0  0
    7.8138   47.4228   51.8677 C   0  0  0  0  0  0  0  0  0  0  0  0
    9.1522   46.9097   51.3383 C   0  0  0  0  0  0  0  0  0  0  0  0
    9.5297   45.5675   51.9584 C   0  0  0  0  0  0  0  0  0  0  0  0
    9.5120   45.6260   53.4836 C   0  0  0  0  0  0  0  0  0  0  0  0
    8.1670   46.1237   54.0091 C   0  0  0  0  0  0  0  0  0  0  0  0
    3.6516   45.2549   53.5063 H   0  0  0  0  0  0  0  0  0  0  0  0
    2.4972   46.5632   53.9727 H   0  0  0  0  0  0  0  0  0  0  0  0
    3.9202   40.3884   51.1454 H   0  0  0  0  0  0  0  0  0  0  0  0
    6.6315   40.7696   50.3935 H   0  0  0  0  0  0  0  0  0  0  0  0
    8.3386   42.6100   50.2886 H   0  0  0  0  0  0  0  0  0  0  0  0
    7.6847   44.9900   50.6217 H   0  0  0  0  0  0  0  0  0  0  0  0
    5.2849   45.6149   51.0739 H   0  0  0  0  0  0  0  0  0  0  0  0
    5.1943   46.5405   54.7529 H   0  0  0  0  0  0  0  0  0  0  0  0
    6.1745   48.9009   53.3411 H   0  0  0  0  0  0  0  0  0  0  0  0
    6.6261   48.2825   55.0010 H   0  0  0  0  0  0  0  0  0  0  0  0
    8.5668   48.2080   53.7190 H   0  0  0  0  0  0  0  0  0  0  0  0
    7.0143   46.7466   51.5309 H   0  0  0  0  0  0  0  0  0  0  0  0
    7.6586   48.4403   51.4796 H   0  0  0  0  0  0  0  0  0  0  0  0
    9.0814   46.7905   50.2471 H   0  0  0  0  0  0  0  0  0  0  0  0
    9.9290   47.6409   51.6066 H   0  0  0  0  0  0  0  0  0  0  0  0
    8.8117   44.8049   51.6224 H   0  0  0  0  0  0  0  0  0  0  0  0
   10.5510   45.3159   51.6365 H   0  0  0  0  0  0  0  0  0  0  0  0
    9.7007   44.6183   53.8822 H   0  0  0  0  0  0  0  0  0  0  0  0
   10.2920   46.3291   53.8111 H   0  0  0  0  0  0  0  0  0  0  0  0
    7.3877   45.3929   53.7470 H   0  0  0  0  0  0  0  0  0  0  0  0
    8.2430   46.2389   55.1004 H   0  0  0  0  0  0  0  0  0  0  0  0
  1  2  2  0
  2  3  1  0
  3  4  1  0
  4  5  1  0
  5  6  2  0
  6  7  1  0
  7  8  2  0
  8  9  1  0
  9 10  1  0
 10 11  2  0
 11 12  1  0
 12 13  2  0
 13 14  1  0
 14 15  2  0
 15 16  1  0
  2 17  1  0
 17 18  1  0
 18 19  1  0
 19 20  1  0
 20 21  1  0
 21 22  1  0
 22 23  1  0
 23 24  1  0
 16  5  1  0
 24 19  1  0
 16  8  1  0
 15 10  1  0
  3 25  1  0
  3 26  1  0
  9 27  1  0
 11 28  1  0
 12 29  1  0
 13 30  1  0
 14 31  1  0
 17 32  1  0
 18 33  1  0
 18 34  1  0
 19 35  1  0
 20 36  1  0
 20 37  1  0
 21 38  1  0
 21 39  1  0
 22 40  1  0
 22 41  1  0
 23 42  1  0
 23 43  1  0
 24 44  1  0
 24 45  1  0
M  END
>  <meeko>  (1) 
{"is_sidechain": false}

>  <CID>  (1) 
Z16226176

>  <pose_index>  (1) 
3

>  <docking_score>  (1) 
-9.061

>  <rmsd_to_best_selected>  (1) 
1.4790245489092575

>  <MWT>  (1) 
343.45599999999973

>  <TPSA>  (1) 
75.08

>  <logP>  (1) 
2.999200000000002

>  <HBD>  (1) 
2

>  <HBA>  (1) 
5

>  <SMILES>  (1) 
[H]c1c([H])c([H])c2c(c1[H])n([H])c1nnc(SC([H])([H])C(=O)N([H])C([H])([H])C3([H])C([H])([H])C([H])([H])C([H])([H])C([H])([H])C3([H])[H])n21

$$$$
Z16226176_pose1
     RDKit          3D

 45 48  0  0  0  0  0  0  0  0999 V2000
    4.2480   48.7280   54.0640 O   0  0  0  0  0  0  0  0  0  0  0  0
    4.1190   47.6020   53.5900 C   0  0  0  0  0  0  0  0  0  0  0  0
    2.8840   47.1890   52.8080 C   0  0  0  0  0  0  0  0  0  0  0  0
    3.3490   46.4470   51.2170 S   0  0  0  0  0  0  0  0  0  0  0  0
    2.8940   44.8050   51.4690 C   0  0  0  0  0  0  0  0  0  0  0  0
    1.7780   44.3670   52.0320 N   0  0  0  0  0  0  0  0  0  0  0  0
    1.8000   42.9700   52.0300 N   0  0  0  0  0  0  0  0  0  0  0  0
    2.9210   42.6220   51.4550 C   0  0  0  0  0  0  0  0  0  0  0  0
    3.6150   41.5090   51.1180 N   0  0  0  0  0  0  0  0  0  0  0  0
    4.8630   41.9590   50.6420 C   0  0  0  0  0  0  0  0  0  0  0  0
    5.9340   41.2440   50.1640 C   0  0  0  0  0  0  0  0  0  0  0  0
    7.0290   41.9730   49.6810 C   0  0  0  0  0  0  0  0  0  0  0  0
    7.0260   43.3880   49.6610 C   0  0  0  0  0  0  0  0  0  0  0  0
    5.9280   44.1180   50.1180 C   0  0  0  0  0  0  0  0  0  0  0  0
    4.8740   43.3730   50.5890 C   0  0  0  0  0  0  0  0  0  0  0  0
    3.6480   43.7370   51.1200 N   0  0  0  0  0  0  0  0  0  0  0  0
    5.0750   46.6120   53.7130 N   0  0  0  0  0  0  0  0  0  0  0  0
    6.2590   46.8250   54.5190 C   0  0  0  0  0  0  0  0  0  0  0  0
    7.5650   46.4390   53.8110 C   0  0  0  0  0  0  0  0  0  0  0  0
    8.7590   47.2690   54.3090 C   0  0  0  0  0  0  0  0  0  0  0  0
   10.0590   46.8590   53.6180 C   0  0  0  0  0  0  0  0  0  0  0  0
    9.9350   46.9170   52.0980 C   0  0  0  0  0  0  0  0  0  0  0  0
    8.7480   46.0980   51.5980 C   0  0  0  0  0  0  0  0  0  0  0  0
    7.4480   46.5200   52.2790 C   0  0  0  0  0  0  0  0  0  0  0  0
    2.3134   46.4548   53.3957 H   0  0  0  0  0  0  0  0  0  0  0  0
    2.2723   48.0828   52.6157 H   0  0  0  0  0  0  0  0  0  0  0  0
    3.4980   40.6040   51.5480 H   0  0  0  0  0  0  0  0  0  0  0  0
    5.9322   40.1440   50.1605 H   0  0  0  0  0  0  0  0  0  0  0  0
    7.9117   41.4326   49.3086 H   0  0  0  0  0  0  0  0  0  0  0  0
    7.9071   43.9233   49.2774 H   0  0  0  0  0  0  0  0  0  0  0  0
    5.9077   45.2177   50.1022 H   0  0  0  0  0  0  0  0  0  0  0  0
    4.7330   45.6560   53.6330 H   0  0  0  0  0  0  0  0  0  0  0  0
    6.3105   47.8910   54.7856 H   0  0  0  0  0  0  0  0  0  0  0  0
    6.1679   46.1754   55.4020 H   0  0  0  0  0  0  0  0  0  0  0  0
    7.7520   45.3872   54.0732 H   0  0  0  0  0  0  0  0  0  0  0  0
    8.5653   48.3319   54.1025 H   0  0  0  0  0  0  0  0  0  0  0  0
    8.8736   47.0920   55.3886 H   0  0  0  0  0  0  0  0  0  0  0  0
   10.8617   47.5405   53.9361 H   0  0  0  0  0  0  0  0  0  0  0  0
   10.2856   45.8211   53.9034 H   0  0  0  0  0  0  0  0  0  0  0  0
    9.8003   47.9646   51.7908 H   0  0  0  0  0  0  0  0  0  0  0  0
   10.8521   46.4939   51.6622 H   0  0  0  0  0  0  0  0  0  0  0  0
    8.6459   46.2432   50.5124 H   0  0  0  0  0  0  0  0  0  0  0  0
    8.9343   45.0405   51.8368 H   0  0  0  0  0  0  0  0  0  0  0  0
    7.2136   47.5558   51.9922 H   0  0  0  0  0  0  0  0  0  0  0  0
    6.6498   45.8354   51.9560 H   0  0  0  0  0  0  0  0  0  0  0  0
  1  2  2  0
  2  3  1  0
  3  4  1  0
  4  5  1  0
  5  6  2  0
  6  7  1  0
  7  8  2  0
  8  9  1  0
  9 10  1  0
 10 11  2  0
 11 12  1  0
 12 13  2  0
 13 14  1  0
 14 15  2  0
 15 16  1  0
  2 17  1  0
 17 18  1  0
 18 19  1  0
 19 20  1  0
 20 21  1  0
 21 22  1  0
 22 23  1  0
 23 24  1  0
 16  5  1  0
 24 19  1  0
 16  8  1  0
 15 10  1  0
  3 25  1  0
  3 26  1  0
  9 27  1  0
 11 28  1  0
 12 29  1  0
 13 30  1  0
 14 31  1  0
 17 32  1  0
 18 33  1  0
 18 34  1  0
 19 35  1  0
 20 36  1  0
 20 37  1  0
 21 38  1  0
 21 39  1  0
 22 40  1  0
 22 41  1  0
 23 42  1  0
 23 43  1  0
 24 44  1  0
 24 45  1  0
M  END
>  <meeko>  (2) 
{"is_sidechain": false}

>  <CID>  (2) 
Z16226176

>  <pose_index>  (2) 
1

>  <docking_score>  (2) 
-9.411

>  <rmsd_to_best_selected>  (2) 
0.0

>  <MWT>  (2) 
343.45599999999973

>  <TPSA>  (2) 
75.08

>  <logP>  (2) 
2.999200000000002

>  <HBD>  (2) 
2

>  <HBA>  (2) 
5

>  <SMILES>  (2) 
[H]c1c([H])c([H])c2c(c1[H])n([H])c1nnc(SC([H])([H])C(=O)N([H])C([H])([H])C3([H])C([H])([H])C([H])([H])C([H])([H])C([H])([H])C3([H])[H])n21

$$$$
Z16226176_pose2
     RDKit          3D

 45 48  0  0  0  0  0  0  0  0999 V2000
    4.3876   48.8156   53.6894 O   0  0  0  0  0  0  0  0  0  0  0  0
    4.1745   47.6244   53.4691 C   0  0  0  0  0  0  0  0  0  0  0  0
    2.9031   47.1415   52.7916 C   0  0  0  0  0  0  0  0  0  0  0  0
    3.2733   46.4335   51.1606 S   0  0  0  0  0  0  0  0  0  0  0  0
    2.8480   44.7831   51.4097 C   0  0  0  0  0  0  0  0  0  0  0  0
    1.7214   44.3221   51.9311 N   0  0  0  0  0  0  0  0  0  0  0  0
    1.7769   42.9267   51.9431 N   0  0  0  0  0  0  0  0  0  0  0  0
    2.9283   42.6009   51.4176 C   0  0  0  0  0  0  0  0  0  0  0  0
    3.6623   41.5033   51.1193 N   0  0  0  0  0  0  0  0  0  0  0  0
    4.9174   41.9789   50.6904 C   0  0  0  0  0  0  0  0  0  0  0  0
    6.0236   41.2863   50.2631 C   0  0  0  0  0  0  0  0  0  0  0  0
    7.1203   42.0388   49.8183 C   0  0  0  0  0  0  0  0  0  0  0  0
    7.0842   43.4530   49.7852 C   0  0  0  0  0  0  0  0  0  0  0  0
    5.9507   44.1596   50.1907 C   0  0  0  0  0  0  0  0  0  0  0  0
    4.8967   43.3926   50.6239 C   0  0  0  0  0  0  0  0  0  0  0  0
    3.6418   43.7308   51.1016 N   0  0  0  0  0  0  0  0  0  0  0  0
    5.0614   46.6201   53.8047 N   0  0  0  0  0  0  0  0  0  0  0  0
    6.2677   46.9178   54.5482 C   0  0  0  0  0  0  0  0  0  0  0  0
    7.5056   47.1142   53.6616 C   0  0  0  0  0  0  0  0  0  0  0  0
    7.3862   46.3601   52.3279 C   0  0  0  0  0  0  0  0  0  0  0  0
    8.6099   46.5827   51.4415 C   0  0  0  0  0  0  0  0  0  0  0  0
    9.9054   46.2299   52.1673 C   0  0  0  0  0  0  0  0  0  0  0  0
   10.0284   46.9734   53.4946 C   0  0  0  0  0  0  0  0  0  0  0  0
    8.8106   46.7365   54.3838 C   0  0  0  0  0  0  0  0  0  0  0  0
    2.4290   46.3729   53.4196 H   0  0  0  0  0  0  0  0  0  0  0  0
    2.2257   47.9981   52.6596 H   0  0  0  0  0  0  0  0  0  0  0  0
    3.5497   40.5987   51.5530 H   0  0  0  0  0  0  0  0  0  0  0  0
    6.0485   40.1866   50.2694 H   0  0  0  0  0  0  0  0  0  0  0  0
    8.0305   41.5171   49.4873 H   0  0  0  0  0  0  0  0  0  0  0  0
    7.9670   44.0065   49.4327 H   0  0  0  0  0  0  0  0  0  0  0  0
    5.9047   45.2584   50.1652 H   0  0  0  0  0  0  0  0  0  0  0  0
    4.6526   45.6958   53.9320 H   0  0  0  0  0  0  0  0  0  0  0  0
    6.1024   47.8408   55.1234 H   0  0  0  0  0  0  0  0  0  0  0  0
    6.4693   46.0511   55.1949 H   0  0  0  0  0  0  0  0  0  0  0  0
    7.5504   48.1904   53.4386 H   0  0  0  0  0  0  0  0  0  0  0  0
    7.2864   45.2843   52.5343 H   0  0  0  0  0  0  0  0  0  0  0  0
    6.5030   46.7429   51.7955 H   0  0  0  0  0  0  0  0  0  0  0  0
    8.5202   45.9512   50.5453 H   0  0  0  0  0  0  0  0  0  0  0  0
    8.6479   47.6483   51.1714 H   0  0  0  0  0  0  0  0  0  0  0  0
    9.9217   45.1474   52.3620 H   0  0  0  0  0  0  0  0  0  0  0  0
   10.7493   46.5276   51.5275 H   0  0  0  0  0  0  0  0  0  0  0  0
   10.9284   46.6207   54.0197 H   0  0  0  0  0  0  0  0  0  0  0  0
   10.0959   48.0505   53.2817 H   0  0  0  0  0  0  0  0  0  0  0  0
    8.7713   45.6727   54.6608 H   0  0  0  0  0  0  0  0  0  0  0  0
    8.9068   47.3697   55.2782 H   0  0  0  0  0  0  0  0  0  0  0  0
  1  2  2  0
  2  3  1  0
  3  4  1  0
  4  5  1  0
  5  6  2  0
  6  7  1  0
  7  8  2  0
  8  9  1  0
  9 10  1  0
 10 11  2  0
 11 12  1  0
 12 13  2  0
 13 14  1  0
 14 15  2  0
 15 16  1  0
  2 17  1  0
 17 18  1  0
 18 19  1  0
 19 20  1  0
 20 21  1  0
 21 22  1  0
 22 23  1  0
 23 24  1  0
 16  5  1  0
 24 19  1  0
 16  8  1  0
 15 10  1  0
  3 25  1  0
  3 26  1  0
  9 27  1  0
 11 28  1  0
 12 29  1  0
 13 30  1  0
 14 31  1  0
 17 32  1  0
 18 33  1  0
 18 34  1  0
 19 35  1  0
 20 36  1  0
 20 37  1  0
 21 38  1  0
 21 39  1  0
 22 40  1  0
 22 41  1  0
 23 42  1  0
 23 43  1  0
 24 44  1  0
 24 45  1  0
M  END
>  <meeko>  (3) 
{"is_sidechain": false}

>  <CID>  (3) 
Z16226176

>  <pose_index>  (3) 
2

>  <docking_score>  (3) 
-9.359

>  <rmsd_to_best_selected>  (3) 
0.8385694277830994

>  <MWT>  (3) 
343.45599999999973

>  <TPSA>  (3) 
75.08

>  <logP>  (3) 
2.999200000000002

>  <HBD>  (3) 
2

>  <HBA>  (3) 
5

>  <SMILES>  (3) 
[H]c1c([H])c([H])c2c(c1[H])n([H])c1nnc(SC([H])([H])C(=O)N([H])C([H])([H])C3([H])C([H])([H])C([H])([H])C([H])([H])C([H])([H])C3([H])[H])n21

$$$$
Z16226176_pose5
     RDKit          3D

 45 48  0  0  0  0  0  0  0  0999 V2000
    3.6831   48.2706   53.8628 O   0  0  0  0  0  0  0  0  0  0  0  0
    4.0242   47.1106   53.6434 C   0  0  0  0  0  0  0  0  0  0  0  0
    3.0267   46.0346   53.2501 C   0  0  0  0  0  0  0  0  0  0  0  0
    2.3620   46.3490   51.5895 S   0  0  0  0  0  0  0  0  0  0  0  0
    2.2128   44.7447   50.9807 C   0  0  0  0  0  0  0  0  0  0  0  0
    1.0923   44.0600   50.8127 N   0  0  0  0  0  0  0  0  0  0  0  0
    1.4126   42.8065   50.2864 N   0  0  0  0  0  0  0  0  0  0  0  0
    2.7120   42.7900   50.1455 C   0  0  0  0  0  0  0  0  0  0  0  0
    3.7034   41.9649   49.7315 N   0  0  0  0  0  0  0  0  0  0  0  0
    4.9101   42.6274   50.0315 C   0  0  0  0  0  0  0  0  0  0  0  0
    6.2083   42.2371   49.8101 C   0  0  0  0  0  0  0  0  0  0  0  0
    7.2198   43.1476   50.1464 C   0  0  0  0  0  0  0  0  0  0  0  0
    6.9200   44.4279   50.6697 C   0  0  0  0  0  0  0  0  0  0  0  0
    5.6010   44.8398   50.8689 C   0  0  0  0  0  0  0  0  0  0  0  0
    4.6358   43.9225   50.5323 C   0  0  0  0  0  0  0  0  0  0  0  0
    3.2520   43.9681   50.5986 N   0  0  0  0  0  0  0  0  0  0  0  0
    5.3321   46.6748   53.7244 N   0  0  0  0  0  0  0  0  0  0  0  0
    6.3782   47.5622   54.1889 C   0  0  0  0  0  0  0  0  0  0  0  0
    7.7961   47.0397   53.9168 C   0  0  0  0  0  0  0  0  0  0  0  0
    8.3683   47.5810   52.5980 C   0  0  0  0  0  0  0  0  0  0  0  0
    9.7891   47.0769   52.3491 C   0  0  0  0  0  0  0  0  0  0  0  0
    9.8679   45.5542   52.4080 C   0  0  0  0  0  0  0  0  0  0  0  0
    9.2972   45.0101   53.7158 C   0  0  0  0  0  0  0  0  0  0  0  0
    7.8713   45.5037   53.9525 C   0  0  0  0  0  0  0  0  0  0  0  0
    3.5294   45.0562   53.2582 H   0  0  0  0  0  0  0  0  0  0  0  0
    2.1955   46.0433   53.9706 H   0  0  0  0  0  0  0  0  0  0  0  0
    3.6371   40.9591   49.6925 H   0  0  0  0  0  0  0  0  0  0  0  0
    6.4448   41.2500   49.3862 H   0  0  0  0  0  0  0  0  0  0  0  0
    8.2714   42.8601   50.0001 H   0  0  0  0  0  0  0  0  0  0  0  0
    7.7426   45.1121   50.9246 H   0  0  0  0  0  0  0  0  0  0  0  0
    5.3513   45.8336   51.2691 H   0  0  0  0  0  0  0  0  0  0  0  0
    5.4556   45.6789   53.8995 H   0  0  0  0  0  0  0  0  0  0  0  0
    6.2619   48.5315   53.6819 H   0  0  0  0  0  0  0  0  0  0  0  0
    6.2694   47.6440   55.2804 H   0  0  0  0  0  0  0  0  0  0  0  0
    8.4219   47.4210   54.7372 H   0  0  0  0  0  0  0  0  0  0  0  0
    7.7237   47.2539   51.7689 H   0  0  0  0  0  0  0  0  0  0  0  0
    8.4005   48.6786   52.6632 H   0  0  0  0  0  0  0  0  0  0  0  0
   10.1169   47.4123   51.3541 H   0  0  0  0  0  0  0  0  0  0  0  0
   10.4396   47.4839   53.1373 H   0  0  0  0  0  0  0  0  0  0  0  0
    9.2957   45.1347   51.5674 H   0  0  0  0  0  0  0  0  0  0  0  0
   10.9268   45.2627   52.3480 H   0  0  0  0  0  0  0  0  0  0  0  0
    9.2926   43.9109   53.6739 H   0  0  0  0  0  0  0  0  0  0  0  0
    9.9280   45.3679   54.5429 H   0  0  0  0  0  0  0  0  0  0  0  0
    7.2164   45.0950   53.1690 H   0  0  0  0  0  0  0  0  0  0  0  0
    7.5481   45.1642   54.9476 H   0  0  0  0  0  0  0  0  0  0  0  0
  1  2  2  0
  2  3  1  0
  3  4  1  0
  4  5  1  0
  5  6  2  0
  6  7  1  0
  7  8  2  0
  8  9  1  0
  9 10  1  0
 10 11  2  0
 11 12  1  0
 12 13  2  0
 13 14  1  0
 14 15  2  0
 15 16  1  0
  2 17  1  0
 17 18  1  0
 18 19  1  0
 19 20  1  0
 20 21  1  0
 21 22  1  0
 22 23  1  0
 23 24  1  0
 16  5  1  0
 24 19  1  0
 16  8  1  0
 15 10  1  0
  3 25  1  0
  3 26  1  0
  9 27  1  0
 11 28  1  0
 12 29  1  0
 13 30  1  0
 14 31  1  0
 17 32  1  0
 18 33  1  0
 18 34  1  0
 19 35  1  0
 20 36  1  0
 20 37  1  0
 21 38  1  0
 21 39  1  0
 22 40  1  0
 22 41  1  0
 23 42  1  0
 23 43  1  0
 24 44  1  0
 24 45  1  0
M  END
>  <meeko>  (4) 
{"is_sidechain": false}

>  <CID>  (4) 
Z16226176

>  <pose_index>  (4) 
5

>  <docking_score>  (4) 
-8.743

>  <rmsd_to_best_selected>  (4) 
1.5741974967676602

>  <MWT>  (4) 
343.45599999999973

>  <TPSA>  (4) 
75.08

>  <logP>  (4) 
2.999200000000002

>  <HBD>  (4) 
2

>  <HBA>  (4) 
5

>  <SMILES>  (4) 
[H]c1c([H])c([H])c2c(c1[H])n([H])c1nnc(SC([H])([H])C(=O)N([H])C([H])([H])C3([H])C([H])([H])C([H])([H])C([H])([H])C([H])([H])C3([H])[H])n21

$$$$
Z16226176_pose7
     RDKit          3D

 45 48  0  0  0  0  0  0  0  0999 V2000
    4.7989   48.7412   52.1010 O   0  0  0  0  0  0  0  0  0  0  0  0
    4.5397   47.5651   52.3496 C   0  0  0  0  0  0  0  0  0  0  0  0
    3.3756   46.8373   51.6984 C   0  0  0  0  0  0  0  0  0  0  0  0
    2.5727   45.7194   52.8821 S   0  0  0  0  0  0  0  0  0  0  0  0
    2.1089   44.4191   51.8521 C   0  0  0  0  0  0  0  0  0  0  0  0
    0.8751   44.0361   51.5623 N   0  0  0  0  0  0  0  0  0  0  0  0
    0.9428   42.9531   50.6831 N   0  0  0  0  0  0  0  0  0  0  0  0
    2.2131   42.7344   50.4684 C   0  0  0  0  0  0  0  0  0  0  0  0
    3.0224   41.8941   49.7791 N   0  0  0  0  0  0  0  0  0  0  0  0
    4.3364   42.2017   50.1838 C   0  0  0  0  0  0  0  0  0  0  0  0
    5.5315   41.6550   49.7853 C   0  0  0  0  0  0  0  0  0  0  0  0
    6.7036   42.2221   50.3082 C   0  0  0  0  0  0  0  0  0  0  0  0
    6.6617   43.3276   51.1897 C   0  0  0  0  0  0  0  0  0  0  0  0
    5.4503   43.9042   51.5749 C   0  0  0  0  0  0  0  0  0  0  0  0
    4.3217   43.3225   51.0484 C   0  0  0  0  0  0  0  0  0  0  0  0
    2.9753   43.6063   51.2046 N   0  0  0  0  0  0  0  0  0  0  0  0
    5.2769   46.7949   53.2281 N   0  0  0  0  0  0  0  0  0  0  0  0
    6.3517   47.3814   54.0010 C   0  0  0  0  0  0  0  0  0  0  0  0
    7.7070   46.6896   53.7953 C   0  0  0  0  0  0  0  0  0  0  0  0
    8.8412   47.4082   54.5441 C   0  0  0  0  0  0  0  0  0  0  0  0
   10.1803   46.6981   54.3556 C   0  0  0  0  0  0  0  0  0  0  0  0
   10.5189   46.5112   52.8794 C   0  0  0  0  0  0  0  0  0  0  0  0
    9.3940   45.8008   52.1300 C   0  0  0  0  0  0  0  0  0  0  0  0
    8.0603   46.5220   52.3077 C   0  0  0  0  0  0  0  0  0  0  0  0
    2.6412   47.5755   51.3440 H   0  0  0  0  0  0  0  0  0  0  0  0
    3.7579   46.2432   50.8552 H   0  0  0  0  0  0  0  0  0  0  0  0
    2.7592   40.9742   49.4589 H   0  0  0  0  0  0  0  0  0  0  0  0
    5.5684   40.8075   49.0850 H   0  0  0  0  0  0  0  0  0  0  0  0
    7.6780   41.7970   50.0259 H   0  0  0  0  0  0  0  0  0  0  0  0
    7.6033   43.7414   51.5798 H   0  0  0  0  0  0  0  0  0  0  0  0
    5.4020   44.7673   52.2551 H   0  0  0  0  0  0  0  0  0  0  0  0
    4.7847   46.0039   53.6403 H   0  0  0  0  0  0  0  0  0  0  0  0
    6.4528   48.4374   53.7100 H   0  0  0  0  0  0  0  0  0  0  0  0
    6.0872   47.2625   55.0621 H   0  0  0  0  0  0  0  0  0  0  0  0
    7.6015   45.6830   54.2261 H   0  0  0  0  0  0  0  0  0  0  0  0
    8.9257   48.4362   54.1617 H   0  0  0  0  0  0  0  0  0  0  0  0
    8.5995   47.4058   55.6172 H   0  0  0  0  0  0  0  0  0  0  0  0
   10.9714   47.2980   54.8293 H   0  0  0  0  0  0  0  0  0  0  0  0
   10.1082   45.7030   54.8188 H   0  0  0  0  0  0  0  0  0  0  0  0
   10.6839   47.4984   52.4232 H   0  0  0  0  0  0  0  0  0  0  0  0
   11.4242   45.8901   52.8101 H   0  0  0  0  0  0  0  0  0  0  0  0
    9.6428   45.7683   51.0590 H   0  0  0  0  0  0  0  0  0  0  0  0
    9.2942   44.7849   52.5400 H   0  0  0  0  0  0  0  0  0  0  0  0
    8.1259   47.5160   51.8412 H   0  0  0  0  0  0  0  0  0  0  0  0
    7.2740   45.9183   51.8310 H   0  0  0  0  0  0  0  0  0  0  0  0
  1  2  2  0
  2  3  1  0
  3  4  1  0
  4  5  1  0
  5  6  2  0
  6  7  1  0
  7  8  2  0
  8  9  1  0
  9 10  1  0
 10 11  2  0
 11 12  1  0
 12 13  2  0
 13 14  1  0
 14 15  2  0
 15 16  1  0
  2 17  1  0
 17 18  1  0
 18 19  1  0
 19 20  1  0
 20 21  1  0
 21 22  1  0
 22 23  1  0
 23 24  1  0
 16  5  1  0
 24 19  1  0
 16  8  1  0
 15 10  1  0
  3 25  1  0
  3 26  1  0
  9 27  1  0
 11 28  1  0
 12 29  1  0
 13 30  1  0
 14 31  1  0
 17 32  1  0
 18 33  1  0
 18 34  1  0
 19 35  1  0
 20 36  1  0
 20 37  1  0
 21 38  1  0
 21 39  1  0
 22 40  1  0
 22 41  1  0
 23 42  1  0
 23 43  1  0
 24 44  1  0
 24 45  1  0
M  END
>  <meeko>  (5) 
{"is_sidechain": false}

>  <CID>  (5) 
Z16226176

>  <pose_index>  (5) 
7

>  <docking_score>  (5) 
-8.606

>  <rmsd_to_best_selected>  (5) 
1.1018264858486364

>  <MWT>  (5) 
343.45599999999973

>  <TPSA>  (5) 
75.08

>  <logP>  (5) 
2.999200000000002

>  <HBD>  (5) 
2

>  <HBA>  (5) 
5

>  <SMILES>  (5) 
[H]c1c([H])c([H])c2c(c1[H])n([H])c1nnc(SC([H])([H])C(=O)N([H])C([H])([H])C3([H])C([H])([H])C([H])([H])C([H])([H])C([H])([H])C3([H])[H])n21

$$$$
Z16226176_pose10
     RDKit          3D

 45 48  0  0  0  0  0  0  0  0999 V2000
    4.5636   49.0253   51.7502 O   0  0  0  0  0  0  0  0  0  0  0  0
    4.2874   48.0063   52.3796 C   0  0  0  0  0  0  0  0  0  0  0  0
    2.9660   47.2794   52.2026 C   0  0  0  0  0  0  0  0  0  0  0  0
    2.9254   46.3938   50.6171 S   0  0  0  0  0  0  0  0  0  0  0  0
    2.6665   44.7750   51.1464 C   0  0  0  0  0  0  0  0  0  0  0  0
    1.5588   44.2811   51.6780 N   0  0  0  0  0  0  0  0  0  0  0  0
    1.7663   42.9268   51.9542 N   0  0  0  0  0  0  0  0  0  0  0  0
    2.9845   42.6563   51.5673 C   0  0  0  0  0  0  0  0  0  0  0  0
    3.8567   41.6210   51.5233 N   0  0  0  0  0  0  0  0  0  0  0  0
    5.0817   42.1629   51.0864 C   0  0  0  0  0  0  0  0  0  0  0  0
    6.2875   41.5461   50.8620 C   0  0  0  0  0  0  0  0  0  0  0  0
    7.3275   42.3348   50.3483 C   0  0  0  0  0  0  0  0  0  0  0  0
    7.1393   43.7050   50.0492 C   0  0  0  0  0  0  0  0  0  0  0  0
    5.9058   44.3286   50.2484 C   0  0  0  0  0  0  0  0  0  0  0  0
    4.9119   43.5287   50.7556 C   0  0  0  0  0  0  0  0  0  0  0  0
    3.5925   43.7907   51.0868 N   0  0  0  0  0  0  0  0  0  0  0  0
    5.1429   47.4233   53.2937 N   0  0  0  0  0  0  0  0  0  0  0  0
    6.3950   48.0610   53.6436 C   0  0  0  0  0  0  0  0  0  0  0  0
    7.5843   47.0918   53.7097 C   0  0  0  0  0  0  0  0  0  0  0  0
    8.7904   47.6014   52.9051 C   0  0  0  0  0  0  0  0  0  0  0  0
    9.9764   46.6434   52.9984 C   0  0  0  0  0  0  0  0  0  0  0  0
    9.5916   45.2248   52.5874 C   0  0  0  0  0  0  0  0  0  0  0  0
    8.3917   44.7142   53.3808 C   0  0  0  0  0  0  0  0  0  0  0  0
    7.2032   45.6670   53.2729 C   0  0  0  0  0  0  0  0  0  0  0  0
    2.8388   46.5572   53.0225 H   0  0  0  0  0  0  0  0  0  0  0  0
    2.1519   48.0190   52.2147 H   0  0  0  0  0  0  0  0  0  0  0  0
    3.8093   40.8034   52.1110 H   0  0  0  0  0  0  0  0  0  0  0  0
    6.4322   40.4769   51.0764 H   0  0  0  0  0  0  0  0  0  0  0  0
    8.3126   41.8774   50.1739 H   0  0  0  0  0  0  0  0  0  0  0  0
    7.9815   44.2906   49.6518 H   0  0  0  0  0  0  0  0  0  0  0  0
    5.7413   45.3908   50.0144 H   0  0  0  0  0  0  0  0  0  0  0  0
    4.7000   46.8466   54.0066 H   0  0  0  0  0  0  0  0  0  0  0  0
    6.6156   48.8304   52.8891 H   0  0  0  0  0  0  0  0  0  0  0  0
    6.2693   48.4846   54.6509 H   0  0  0  0  0  0  0  0  0  0  0  0
    7.8798   47.0464   54.7683 H   0  0  0  0  0  0  0  0  0  0  0  0
    8.4973   47.7045   51.8499 H   0  0  0  0  0  0  0  0  0  0  0  0
    9.0982   48.5705   53.3248 H   0  0  0  0  0  0  0  0  0  0  0  0
   10.7769   47.0018   52.3345 H   0  0  0  0  0  0  0  0  0  0  0  0
   10.3136   46.6170   54.0451 H   0  0  0  0  0  0  0  0  0  0  0  0
    9.3395   45.2196   51.5167 H   0  0  0  0  0  0  0  0  0  0  0  0
   10.4462   44.5637   52.7938 H   0  0  0  0  0  0  0  0  0  0  0  0
    8.0971   43.7294   52.9892 H   0  0  0  0  0  0  0  0  0  0  0  0
    8.6826   44.6437   54.4393 H   0  0  0  0  0  0  0  0  0  0  0  0
    6.8590   45.6929   52.2285 H   0  0  0  0  0  0  0  0  0  0  0  0
    6.4062   45.3027   53.9378 H   0  0  0  0  0  0  0  0  0  0  0  0
  1  2  2  0
  2  3  1  0
  3  4  1  0
  4  5  1  0
  5  6  2  0
  6  7  1  0
  7  8  2  0
  8  9  1  0
  9 10  1  0
 10 11  2  0
 11 12  1  0
 12 13  2  0
 13 14  1  0
 14 15  2  0
 15 16  1  0
  2 17  1  0
 17 18  1  0
 18 19  1  0
 19 20  1  0
 20 21  1  0
 21 22  1  0
 22 23  1  0
 23 24  1  0
 16  5  1  0
 24 19  1  0
 16  8  1  0
 15 10  1  0
  3 25  1  0
  3 26  1  0
  9 27  1  0
 11 28  1  0
 12 29  1  0
 13 30  1  0
 14 31  1  0
 17 32  1  0
 18 33  1  0
 18 34  1  0
 19 35  1  0
 20 36  1  0
 20 37  1  0
 21 38  1  0
 21 39  1  0
 22 40  1  0
 22 41  1  0
 23 42  1  0
 23 43  1  0
 24 44  1  0
 24 45  1  0
M  END
>  <meeko>  (6) 
{"is_sidechain": false}

>  <CID>  (6) 
Z16226176

>  <pose_index>  (6) 
10

>  <docking_score>  (6) 
-8.445

>  <rmsd_to_best_selected>  (6) 
1.2893338926946927

>  <MWT>  (6) 
343.45599999999973

>  <TPSA>  (6) 
75.08

>  <logP>  (6) 
2.999200000000002

>  <HBD>  (6) 
2

>  <HBA>  (6) 
5

>  <SMILES>  (6) 
[H]c1c([H])c([H])c2c(c1[H])n([H])c1nnc(SC([H])([H])C(=O)N([H])C([H])([H])C3([H])C([H])([H])C([H])([H])C([H])([H])C([H])([H])C3([H])[H])n21

$$$$
