Z1657744734_pose8
     RDKit          3D

 41 44  0  0  0  0  0  0  0  0999 V2000
    2.9515   46.0518   52.0051 O   0  0  0  0  0  0  0  0  0  0  0  0
    3.2808   45.3675   52.9655 C   0  0  0  0  0  0  0  0  0  0  0  0
    4.4555   45.4035   53.6707 N   0  0  0  0  0  0  0  0  0  0  0  0
    5.5455   46.1546   53.3403 C   0  0  0  0  0  0  0  0  0  0  0  0
    5.5236   47.2459   52.5284 N   0  0  0  0  0  0  0  0  0  0  0  0
    6.7798   47.6193   52.4820 C   0  0  0  0  0  0  0  0  0  0  0  0
    7.5297   46.7689   53.2344 N   0  0  0  0  0  0  0  0  0  0  0  0
    8.9697   46.8289   53.4449 C   0  0  0  0  0  0  0  0  0  0  0  0
    9.5949   48.1106   52.8701 C   0  0  0  0  0  0  0  0  0  0  0  0
    9.8795   48.0357   51.3709 C   0  0  0  0  0  0  0  0  0  0  0  0
   10.6922   46.7972   51.0140 C   0  0  0  0  0  0  0  0  0  0  0  0
   10.0055   45.5208   51.4863 C   0  0  0  0  0  0  0  0  0  0  0  0
    9.7022   45.5566   52.9844 C   0  0  0  0  0  0  0  0  0  0  0  0
    6.7597   45.8098   53.7786 N   0  0  0  0  0  0  0  0  0  0  0  0
    2.3046   44.3879   53.4891 C   0  0  0  0  0  0  0  0  0  0  0  0
    2.7548   43.2085   54.1002 C   0  0  0  0  0  0  0  0  0  0  0  0
    1.8486   42.2634   54.5831 C   0  0  0  0  0  0  0  0  0  0  0  0
    0.4683   42.4752   54.4812 C   0  0  0  0  0  0  0  0  0  0  0  0
    0.0027   43.6678   53.8970 C   0  0  0  0  0  0  0  0  0  0  0  0
   -1.2585   44.2482   53.6338 C   0  0  0  0  0  0  0  0  0  0  0  0
   -1.1631   45.4502   53.0585 N   0  0  0  0  0  0  0  0  0  0  0  0
    0.1640   45.6573   52.9843 N   0  0  0  0  0  0  0  0  0  0  0  0
    0.9203   44.6002   53.4243 C   0  0  0  0  0  0  0  0  0  0  0  0
    4.5515   44.9335   54.5558 H   0  0  0  0  0  0  0  0  0  0  0  0
    7.1665   48.4841   51.9228 H   0  0  0  0  0  0  0  0  0  0  0  0
    9.1109   46.8750   54.5348 H   0  0  0  0  0  0  0  0  0  0  0  0
    8.9026   48.9460   53.0509 H   0  0  0  0  0  0  0  0  0  0  0  0
   10.5623   48.2507   53.3745 H   0  0  0  0  0  0  0  0  0  0  0  0
    8.9236   48.0039   50.8275 H   0  0  0  0  0  0  0  0  0  0  0  0
   10.4639   48.9235   51.0874 H   0  0  0  0  0  0  0  0  0  0  0  0
   10.8152   46.7533   49.9218 H   0  0  0  0  0  0  0  0  0  0  0  0
   11.6681   46.8692   51.5164 H   0  0  0  0  0  0  0  0  0  0  0  0
    9.0612   45.4004   50.9352 H   0  0  0  0  0  0  0  0  0  0  0  0
   10.6861   44.6777   51.2967 H   0  0  0  0  0  0  0  0  0  0  0  0
    9.0743   44.6878   53.2309 H   0  0  0  0  0  0  0  0  0  0  0  0
   10.6708   45.5411   53.5054 H   0  0  0  0  0  0  0  0  0  0  0  0
    3.8350   43.0263   54.2000 H   0  0  0  0  0  0  0  0  0  0  0  0
    2.2235   41.3404   55.0497 H   0  0  0  0  0  0  0  0  0  0  0  0
   -0.2414   41.7210   54.8522 H   0  0  0  0  0  0  0  0  0  0  0  0
   -2.2153   43.7628   53.8763 H   0  0  0  0  0  0  0  0  0  0  0  0
    0.4906   46.5481   52.6231 H   0  0  0  0  0  0  0  0  0  0  0  0
  1  2  2  0
  2  3  1  0
  3  4  1  0
  4  5  1  0
  5  6  2  0
  6  7  1  0
  7  8  1  0
  8  9  1  0
  9 10  1  0
 10 11  1  0
 11 12  1  0
 12 13  1  0
  7 14  1  0
  2 15  1  0
 15 16  2  0
 16 17  1  0
 17 18  2  0
 18 19  1  0
 19 20  1  0
 20 21  2  0
 21 22  1  0
 22 23  1  0
 14  4  2  0
 23 15  1  0
 13  8  1  0
 23 19  2  0
  3 24  1  0
  6 25  1  0
  8 26  1  0
  9 27  1  0
  9 28  1  0
 10 29  1  0
 10 30  1  0
 11 31  1  0
 11 32  1  0
 12 33  1  0
 12 34  1  0
 13 35  1  0
 13 36  1  0
 16 37  1  0
 17 38  1  0
 18 39  1  0
 20 40  1  0
 22 41  1  0
M  END
>  <meeko>  (1) 
{"is_sidechain": false}

>  <CID>  (1) 
Z1657744734

>  <pose_index>  (1) 
8

>  <docking_score>  (1) 
-8.274

>  <rmsd_to_best_selected>  (1) 
1.3288217816303274

>  <MWT>  (1) 
310.36099999999965

>  <TPSA>  (1) 
88.49000000000001

>  <logP>  (1) 
2.911900000000001

>  <HBD>  (1) 
2

>  <HBA>  (1) 
5

>  <SMILES>  (1) 
[H]c1c([H])c(C(=O)N([H])c2nc([H])n(C3([H])C([H])([H])C([H])([H])C([H])([H])C([H])([H])C3([H])[H])n2)c2c(c([H])nn2[H])c1[H]

$$$$
Z1657744734_pose2
     RDKit          3D

 41 44  0  0  0  0  0  0  0  0999 V2000
    2.9146   46.4902   52.0917 O   0  0  0  0  0  0  0  0  0  0  0  0
    3.3308   45.5493   52.7551 C   0  0  0  0  0  0  0  0  0  0  0  0
    4.6126   45.0741   52.8445 N   0  0  0  0  0  0  0  0  0  0  0  0
    5.6641   45.5108   52.0927 C   0  0  0  0  0  0  0  0  0  0  0  0
    5.9360   45.1048   50.8228 N   0  0  0  0  0  0  0  0  0  0  0  0
    7.0309   45.7599   50.5196 C   0  0  0  0  0  0  0  0  0  0  0  0
    7.4075   46.5235   51.5804 N   0  0  0  0  0  0  0  0  0  0  0  0
    8.5697   47.3989   51.6581 C   0  0  0  0  0  0  0  0  0  0  0  0
    9.8718   46.6811   51.2670 C   0  0  0  0  0  0  0  0  0  0  0  0
   10.4883   45.8656   52.4014 C   0  0  0  0  0  0  0  0  0  0  0  0
   10.6545   46.6981   53.6666 C   0  0  0  0  0  0  0  0  0  0  0  0
    9.3329   47.3112   54.1139 C   0  0  0  0  0  0  0  0  0  0  0  0
    8.6822   48.1372   53.0030 C   0  0  0  0  0  0  0  0  0  0  0  0
    6.5533   46.3642   52.6079 N   0  0  0  0  0  0  0  0  0  0  0  0
    2.3689   44.8235   53.6125 C   0  0  0  0  0  0  0  0  0  0  0  0
    2.6578   44.6140   54.9690 C   0  0  0  0  0  0  0  0  0  0  0  0
    1.7708   43.9149   55.7890 C   0  0  0  0  0  0  0  0  0  0  0  0
    0.5656   43.4167   55.2814 C   0  0  0  0  0  0  0  0  0  0  0  0
    0.2474   43.6470   53.9297 C   0  0  0  0  0  0  0  0  0  0  0  0
   -0.8320   43.3422   53.0712 C   0  0  0  0  0  0  0  0  0  0  0  0
   -0.6582   43.8145   51.8346 N   0  0  0  0  0  0  0  0  0  0  0  0
    0.5219   44.4574   51.9085 N   0  0  0  0  0  0  0  0  0  0  0  0
    1.1419   44.3484   53.1276 C   0  0  0  0  0  0  0  0  0  0  0  0
    4.8815   44.4183   53.5590 H   0  0  0  0  0  0  0  0  0  0  0  0
    7.5617   45.7011   49.5579 H   0  0  0  0  0  0  0  0  0  0  0  0
    8.4065   48.1822   50.9032 H   0  0  0  0  0  0  0  0  0  0  0  0
    9.6557   46.0022   50.4289 H   0  0  0  0  0  0  0  0  0  0  0  0
   10.6003   47.4605   50.9988 H   0  0  0  0  0  0  0  0  0  0  0  0
    9.8341   45.0091   52.6214 H   0  0  0  0  0  0  0  0  0  0  0  0
   11.4844   45.5277   52.0794 H   0  0  0  0  0  0  0  0  0  0  0  0
   11.0385   46.0527   54.4704 H   0  0  0  0  0  0  0  0  0  0  0  0
   11.3568   47.5164   53.4496 H   0  0  0  0  0  0  0  0  0  0  0  0
    8.6461   46.5027   54.4046 H   0  0  0  0  0  0  0  0  0  0  0  0
    9.5378   47.9816   54.9616 H   0  0  0  0  0  0  0  0  0  0  0  0
    7.6699   48.4185   53.3288 H   0  0  0  0  0  0  0  0  0  0  0  0
    9.3306   49.0096   52.8337 H   0  0  0  0  0  0  0  0  0  0  0  0
    3.5950   45.0053   55.3917 H   0  0  0  0  0  0  0  0  0  0  0  0
    2.0222   43.7536   56.8477 H   0  0  0  0  0  0  0  0  0  0  0  0
   -0.1226   42.8536   55.9289 H   0  0  0  0  0  0  0  0  0  0  0  0
   -1.7207   42.7764   53.3876 H   0  0  0  0  0  0  0  0  0  0  0  0
    0.8496   44.9556   51.0870 H   0  0  0  0  0  0  0  0  0  0  0  0
  1  2  2  0
  2  3  1  0
  3  4  1  0
  4  5  1  0
  5  6  2  0
  6  7  1  0
  7  8  1  0
  8  9  1  0
  9 10  1  0
 10 11  1  0
 11 12  1  0
 12 13  1  0
  7 14  1  0
  2 15  1  0
 15 16  2  0
 16 17  1  0
 17 18  2  0
 18 19  1  0
 19 20  1  0
 20 21  2  0
 21 22  1  0
 22 23  1  0
 14  4  2  0
 23 15  1  0
 13  8  1  0
 23 19  2  0
  3 24  1  0
  6 25  1  0
  8 26  1  0
  9 27  1  0
  9 28  1  0
 10 29  1  0
 10 30  1  0
 11 31  1  0
 11 32  1  0
 12 33  1  0
 12 34  1  0
 13 35  1  0
 13 36  1  0
 16 37  1  0
 17 38  1  0
 18 39  1  0
 20 40  1  0
 22 41  1  0
M  END
>  <meeko>  (2) 
{"is_sidechain": false}

>  <CID>  (2) 
Z1657744734

>  <pose_index>  (2) 
2

>  <docking_score>  (2) 
-9.052

>  <rmsd_to_best_selected>  (2) 
0.0

>  <MWT>  (2) 
310.36099999999965

>  <TPSA>  (2) 
88.49000000000001

>  <logP>  (2) 
2.911900000000001

>  <HBD>  (2) 
2

>  <HBA>  (2) 
5

>  <SMILES>  (2) 
[H]c1c([H])c(C(=O)N([H])c2nc([H])n(C3([H])C([H])([H])C([H])([H])C([H])([H])C([H])([H])C3([H])[H])n2)c2c(c([H])nn2[H])c1[H]

$$$$
Z1657744734_pose3
     RDKit          3D

 41 44  0  0  0  0  0  0  0  0999 V2000
    2.7507   46.7357   53.1478 O   0  0  0  0  0  0  0  0  0  0  0  0
    3.1708   45.6424   53.5033 C   0  0  0  0  0  0  0  0  0  0  0  0
    4.4709   45.2510   53.6867 N   0  0  0  0  0  0  0  0  0  0  0  0
    5.5670   46.0050   53.3840 C   0  0  0  0  0  0  0  0  0  0  0  0
    5.8826   47.1923   53.9687 N   0  0  0  0  0  0  0  0  0  0  0  0
    6.9839   47.5527   53.3564 C   0  0  0  0  0  0  0  0  0  0  0  0
    7.3094   46.6155   52.4254 N   0  0  0  0  0  0  0  0  0  0  0  0
    8.4569   46.6370   51.5283 C   0  0  0  0  0  0  0  0  0  0  0  0
    9.4525   45.5019   51.8213 C   0  0  0  0  0  0  0  0  0  0  0  0
   10.4181   45.8123   52.9622 C   0  0  0  0  0  0  0  0  0  0  0  0
   11.1221   47.1484   52.7563 C   0  0  0  0  0  0  0  0  0  0  0  0
   10.1237   48.2880   52.5824 C   0  0  0  0  0  0  0  0  0  0  0  0
    9.1369   48.0138   51.4475 C   0  0  0  0  0  0  0  0  0  0  0  0
    6.4018   45.6218   52.4139 N   0  0  0  0  0  0  0  0  0  0  0  0
    2.1844   44.5864   53.8183 C   0  0  0  0  0  0  0  0  0  0  0  0
    2.3738   43.7605   54.9359 C   0  0  0  0  0  0  0  0  0  0  0  0
    1.4628   42.7470   55.2385 C   0  0  0  0  0  0  0  0  0  0  0  0
    0.3316   42.5378   54.4404 C   0  0  0  0  0  0  0  0  0  0  0  0
    0.1127   43.3780   53.3339 C   0  0  0  0  0  0  0  0  0  0  0  0
   -0.8751   43.5063   52.3320 C   0  0  0  0  0  0  0  0  0  0  0  0
   -0.6278   44.5125   51.4882 N   0  0  0  0  0  0  0  0  0  0  0  0
    0.5040   45.0542   51.9722 N   0  0  0  0  0  0  0  0  0  0  0  0
    1.0290   44.3855   53.0490 C   0  0  0  0  0  0  0  0  0  0  0  0
    4.6991   44.3909   54.1592 H   0  0  0  0  0  0  0  0  0  0  0  0
    7.5557   48.4694   53.5630 H   0  0  0  0  0  0  0  0  0  0  0  0
    8.0540   46.4469   50.5226 H   0  0  0  0  0  0  0  0  0  0  0  0
    8.8822   44.5990   52.0848 H   0  0  0  0  0  0  0  0  0  0  0  0
   10.0597   45.3646   50.9144 H   0  0  0  0  0  0  0  0  0  0  0  0
    9.8548   45.8479   53.9064 H   0  0  0  0  0  0  0  0  0  0  0  0
   11.1828   45.0221   52.9893 H   0  0  0  0  0  0  0  0  0  0  0  0
   11.7538   47.3578   53.6321 H   0  0  0  0  0  0  0  0  0  0  0  0
   11.7290   47.0801   51.8415 H   0  0  0  0  0  0  0  0  0  0  0  0
    9.5616   48.4144   53.5195 H   0  0  0  0  0  0  0  0  0  0  0  0
   10.6868   49.1991   52.3316 H   0  0  0  0  0  0  0  0  0  0  0  0
    8.3555   48.7875   51.4742 H   0  0  0  0  0  0  0  0  0  0  0  0
    9.7158   48.0281   50.5123 H   0  0  0  0  0  0  0  0  0  0  0  0
    3.2510   43.9133   55.5819 H   0  0  0  0  0  0  0  0  0  0  0  0
    1.6358   42.1049   56.1147 H   0  0  0  0  0  0  0  0  0  0  0  0
   -0.3753   41.7283   54.6752 H   0  0  0  0  0  0  0  0  0  0  0  0
   -1.7534   42.8486   52.2548 H   0  0  0  0  0  0  0  0  0  0  0  0
    0.8692   45.8861   51.5186 H   0  0  0  0  0  0  0  0  0  0  0  0
  1  2  2  0
  2  3  1  0
  3  4  1  0
  4  5  1  0
  5  6  2  0
  6  7  1  0
  7  8  1  0
  8  9  1  0
  9 10  1  0
 10 11  1  0
 11 12  1  0
 12 13  1  0
  7 14  1  0
  2 15  1  0
 15 16  2  0
 16 17  1  0
 17 18  2  0
 18 19  1  0
 19 20  1  0
 20 21  2  0
 21 22  1  0
 22 23  1  0
 14  4  2  0
 23 15  1  0
 13  8  1  0
 23 19  2  0
  3 24  1  0
  6 25  1  0
  8 26  1  0
  9 27  1  0
  9 28  1  0
 10 29  1  0
 10 30  1  0
 11 31  1  0
 11 32  1  0
 12 33  1  0
 12 34  1  0
 13 35  1  0
 13 36  1  0
 16 37  1  0
 17 38  1  0
 18 39  1  0
 20 40  1  0
 22 41  1  0
M  END
>  <meeko>  (3) 
{"is_sidechain": false}

>  <CID>  (3) 
Z1657744734

>  <pose_index>  (3) 
3

>  <docking_score>  (3) 
-8.822

>  <rmsd_to_best_selected>  (3) 
1.7840412826212377

>  <MWT>  (3) 
310.36099999999965

>  <TPSA>  (3) 
88.49000000000001

>  <logP>  (3) 
2.911900000000001

>  <HBD>  (3) 
2

>  <HBA>  (3) 
5

>  <SMILES>  (3) 
[H]c1c([H])c(C(=O)N([H])c2nc([H])n(C3([H])C([H])([H])C([H])([H])C([H])([H])C([H])([H])C3([H])[H])n2)c2c(c([H])nn2[H])c1[H]

$$$$
Z1657744734_pose4
     RDKit          3D

 41 44  0  0  0  0  0  0  0  0999 V2000
    3.4638   44.8250   51.2371 O   0  0  0  0  0  0  0  0  0  0  0  0
    3.4929   44.8743   52.4600 C   0  0  0  0  0  0  0  0  0  0  0  0
    4.3224   45.6160   53.2607 N   0  0  0  0  0  0  0  0  0  0  0  0
    5.3731   46.3654   52.8195 C   0  0  0  0  0  0  0  0  0  0  0  0
    5.3850   47.7238   52.7482 N   0  0  0  0  0  0  0  0  0  0  0  0
    6.5705   47.9948   52.2548 C   0  0  0  0  0  0  0  0  0  0  0  0
    7.2395   46.8319   52.0283 N   0  0  0  0  0  0  0  0  0  0  0  0
    8.5833   46.6897   51.4831 C   0  0  0  0  0  0  0  0  0  0  0  0
    9.3288   45.4800   52.0690 C   0  0  0  0  0  0  0  0  0  0  0  0
    9.9750   45.7549   53.4249 C   0  0  0  0  0  0  0  0  0  0  0  0
   10.8525   47.0003   53.3878 C   0  0  0  0  0  0  0  0  0  0  0  0
   10.0716   48.2226   52.9164 C   0  0  0  0  0  0  0  0  0  0  0  0
    9.4073   47.9858   51.5586 C   0  0  0  0  0  0  0  0  0  0  0  0
    6.4818   45.7730   52.3667 N   0  0  0  0  0  0  0  0  0  0  0  0
    2.5026   44.0749   53.2122 C   0  0  0  0  0  0  0  0  0  0  0  0
    2.9251   42.9901   53.9957 C   0  0  0  0  0  0  0  0  0  0  0  0
    2.0034   42.2122   54.6976 C   0  0  0  0  0  0  0  0  0  0  0  0
    0.6352   42.5025   54.6478 C   0  0  0  0  0  0  0  0  0  0  0  0
    0.1992   43.6061   53.8905 C   0  0  0  0  0  0  0  0  0  0  0  0
   -1.0410   44.2224   53.6087 C   0  0  0  0  0  0  0  0  0  0  0  0
   -0.9182   45.2949   52.8226 N   0  0  0  0  0  0  0  0  0  0  0  0
    0.4096   45.3887   52.6276 N   0  0  0  0  0  0  0  0  0  0  0  0
    1.1322   44.3731   53.2000 C   0  0  0  0  0  0  0  0  0  0  0  0
    4.1404   45.7269   54.2446 H   0  0  0  0  0  0  0  0  0  0  0  0
    6.9618   49.0034   52.0556 H   0  0  0  0  0  0  0  0  0  0  0  0
    8.4517   46.4852   50.4103 H   0  0  0  0  0  0  0  0  0  0  0  0
    8.6119   44.6541   52.1871 H   0  0  0  0  0  0  0  0  0  0  0  0
   10.1415   45.2337   51.3698 H   0  0  0  0  0  0  0  0  0  0  0  0
    9.1831   45.8988   54.1747 H   0  0  0  0  0  0  0  0  0  0  0  0
   10.6102   44.8949   53.6832 H   0  0  0  0  0  0  0  0  0  0  0  0
   11.2417   47.1932   54.3984 H   0  0  0  0  0  0  0  0  0  0  0  0
   11.6740   46.8218   52.6784 H   0  0  0  0  0  0  0  0  0  0  0  0
    9.2929   48.4548   53.6577 H   0  0  0  0  0  0  0  0  0  0  0  0
   10.7786   49.0585   52.8091 H   0  0  0  0  0  0  0  0  0  0  0  0
    8.7387   48.8335   51.3480 H   0  0  0  0  0  0  0  0  0  0  0  0
   10.2172   47.8915   50.8201 H   0  0  0  0  0  0  0  0  0  0  0  0
    3.9968   42.7498   54.0573 H   0  0  0  0  0  0  0  0  0  0  0  0
    2.3565   41.3604   55.2974 H   0  0  0  0  0  0  0  0  0  0  0  0
   -0.0883   41.8779   55.1921 H   0  0  0  0  0  0  0  0  0  0  0  0
   -2.0041   43.8578   53.9955 H   0  0  0  0  0  0  0  0  0  0  0  0
    0.7609   46.1761   52.0916 H   0  0  0  0  0  0  0  0  0  0  0  0
  1  2  2  0
  2  3  1  0
  3  4  1  0
  4  5  1  0
  5  6  2  0
  6  7  1  0
  7  8  1  0
  8  9  1  0
  9 10  1  0
 10 11  1  0
 11 12  1  0
 12 13  1  0
  7 14  1  0
  2 15  1  0
 15 16  2  0
 16 17  1  0
 17 18  2  0
 18 19  1  0
 19 20  1  0
 20 21  2  0
 21 22  1  0
 22 23  1  0
 14  4  2  0
 23 15  1  0
 13  8  1  0
 23 19  2  0
  3 24  1  0
  6 25  1  0
  8 26  1  0
  9 27  1  0
  9 28  1  0
 10 29  1  0
 10 30  1  0
 11 31  1  0
 11 32  1  0
 12 33  1  0
 12 34  1  0
 13 35  1  0
 13 36  1  0
 16 37  1  0
 17 38  1  0
 18 39  1  0
 20 40  1  0
 22 41  1  0
M  END
>  <meeko>  (4) 
{"is_sidechain": false}

>  <CID>  (4) 
Z1657744734

>  <pose_index>  (4) 
4

>  <docking_score>  (4) 
-8.635

>  <rmsd_to_best_selected>  (4) 
1.7589699340440095

>  <MWT>  (4) 
310.36099999999965

>  <TPSA>  (4) 
88.49000000000001

>  <logP>  (4) 
2.911900000000001

>  <HBD>  (4) 
2

>  <HBA>  (4) 
5

>  <SMILES>  (4) 
[H]c1c([H])c(C(=O)N([H])c2nc([H])n(C3([H])C([H])([H])C([H])([H])C([H])([H])C([H])([H])C3([H])[H])n2)c2c(c([H])nn2[H])c1[H]

$$$$
Z1657744734_pose9
     RDKit          3D

 41 44  0  0  0  0  0  0  0  0999 V2000
    2.8055   45.9373   51.5522 O   0  0  0  0  0  0  0  0  0  0  0  0
    3.2885   45.4556   52.5689 C   0  0  0  0  0  0  0  0  0  0  0  0
    4.4802   45.7651   53.1719 N   0  0  0  0  0  0  0  0  0  0  0  0
    5.4201   46.6114   52.6618 C   0  0  0  0  0  0  0  0  0  0  0  0
    5.2075   47.9214   52.3587 N   0  0  0  0  0  0  0  0  0  0  0  0
    6.3649   48.3187   51.8867 C   0  0  0  0  0  0  0  0  0  0  0  0
    7.2372   47.2746   51.8969 N   0  0  0  0  0  0  0  0  0  0  0  0
    8.6243   47.2915   51.4529 C   0  0  0  0  0  0  0  0  0  0  0  0
    9.1628   45.8827   51.1554 C   0  0  0  0  0  0  0  0  0  0  0  0
    9.6354   45.1315   52.3988 C   0  0  0  0  0  0  0  0  0  0  0  0
   10.6222   45.9577   53.2140 C   0  0  0  0  0  0  0  0  0  0  0  0
   10.0352   47.3093   53.6036 C   0  0  0  0  0  0  0  0  0  0  0  0
    9.5490   48.0935   52.3848 C   0  0  0  0  0  0  0  0  0  0  0  0
    6.6453   46.1643   52.3737 N   0  0  0  0  0  0  0  0  0  0  0  0
    2.5073   44.4288   53.2916 C   0  0  0  0  0  0  0  0  0  0  0  0
    3.1381   43.2643   53.7532 C   0  0  0  0  0  0  0  0  0  0  0  0
    2.4140   42.2757   54.4210 C   0  0  0  0  0  0  0  0  0  0  0  0
    1.0425   42.4281   54.6560 C   0  0  0  0  0  0  0  0  0  0  0  0
    0.4019   43.6048   54.2259 C   0  0  0  0  0  0  0  0  0  0  0  0
   -0.9067   44.1316   54.2842 C   0  0  0  0  0  0  0  0  0  0  0  0
   -1.0017   45.3423   53.7271 N   0  0  0  0  0  0  0  0  0  0  0  0
    0.2594   45.6080   53.3407 N   0  0  0  0  0  0  0  0  0  0  0  0
    1.1408   44.5815   53.5646 C   0  0  0  0  0  0  0  0  0  0  0  0
    4.6957   45.4462   54.1026 H   0  0  0  0  0  0  0  0  0  0  0  0
    6.5943   49.3362   51.5375 H   0  0  0  0  0  0  0  0  0  0  0  0
    8.6255   47.8341   50.4961 H   0  0  0  0  0  0  0  0  0  0  0  0
    8.3617   45.2978   50.6797 H   0  0  0  0  0  0  0  0  0  0  0  0
   10.0383   46.0045   50.5007 H   0  0  0  0  0  0  0  0  0  0  0  0
    8.7632   44.8963   53.0264 H   0  0  0  0  0  0  0  0  0  0  0  0
   10.1446   44.2128   52.0720 H   0  0  0  0  0  0  0  0  0  0  0  0
   10.8813   45.4041   54.1286 H   0  0  0  0  0  0  0  0  0  0  0  0
   11.5148   46.1355   52.5962 H   0  0  0  0  0  0  0  0  0  0  0  0
    9.1856   47.1453   54.2828 H   0  0  0  0  0  0  0  0  0  0  0  0
   10.8268   47.8961   54.0924 H   0  0  0  0  0  0  0  0  0  0  0  0
    8.9999   48.9783   52.7393 H   0  0  0  0  0  0  0  0  0  0  0  0
   10.4419   48.3560   51.7984 H   0  0  0  0  0  0  0  0  0  0  0  0
    4.2169   43.1285   53.5868 H   0  0  0  0  0  0  0  0  0  0  0  0
    2.9270   41.3661   54.7667 H   0  0  0  0  0  0  0  0  0  0  0  0
    0.4736   41.6391   55.1697 H   0  0  0  0  0  0  0  0  0  0  0  0
   -1.7567   43.6021   54.7394 H   0  0  0  0  0  0  0  0  0  0  0  0
    0.4529   46.5158   52.9289 H   0  0  0  0  0  0  0  0  0  0  0  0
  1  2  2  0
  2  3  1  0
  3  4  1  0
  4  5  1  0
  5  6  2  0
  6  7  1  0
  7  8  1  0
  8  9  1  0
  9 10  1  0
 10 11  1  0
 11 12  1  0
 12 13  1  0
  7 14  1  0
  2 15  1  0
 15 16  2  0
 16 17  1  0
 17 18  2  0
 18 19  1  0
 19 20  1  0
 20 21  2  0
 21 22  1  0
 22 23  1  0
 14  4  2  0
 23 15  1  0
 13  8  1  0
 23 19  2  0
  3 24  1  0
  6 25  1  0
  8 26  1  0
  9 27  1  0
  9 28  1  0
 10 29  1  0
 10 30  1  0
 11 31  1  0
 11 32  1  0
 12 33  1  0
 12 34  1  0
 13 35  1  0
 13 36  1  0
 16 37  1  0
 17 38  1  0
 18 39  1  0
 20 40  1  0
 22 41  1  0
M  END
>  <meeko>  (5) 
{"is_sidechain": false}

>  <CID>  (5) 
Z1657744734

>  <pose_index>  (5) 
9

>  <docking_score>  (5) 
-7.958

>  <rmsd_to_best_selected>  (5) 
1.4088784807542234

>  <MWT>  (5) 
310.36099999999965

>  <TPSA>  (5) 
88.49000000000001

>  <logP>  (5) 
2.911900000000001

>  <HBD>  (5) 
2

>  <HBA>  (5) 
5

>  <SMILES>  (5) 
[H]c1c([H])c(C(=O)N([H])c2nc([H])n(C3([H])C([H])([H])C([H])([H])C([H])([H])C([H])([H])C3([H])[H])n2)c2c(c([H])nn2[H])c1[H]

$$$$
