Z1677967961_pose6
     RDKit          3D

 46 49  0  0  0  0  0  0  0  0999 V2000
    7.0160   44.4693   54.5861 O   0  0  0  0  0  0  0  0  0  0  0  0
    6.7863   45.4140   53.8354 C   0  0  0  0  0  0  0  0  0  0  0  0
    5.5475   45.9259   53.5472 N   0  0  0  0  0  0  0  0  0  0  0  0
    4.3556   45.5023   54.0528 C   0  0  0  0  0  0  0  0  0  0  0  0
    3.8998   45.5995   55.3023 N   0  0  0  0  0  0  0  0  0  0  0  0
    2.6959   45.0253   55.2068 N   0  0  0  0  0  0  0  0  0  0  0  0
    2.4485   44.6110   53.9335 C   0  0  0  0  0  0  0  0  0  0  0  0
    1.1505   43.9190   53.4505 C   0  0  0  0  0  0  0  0  0  0  0  0
    1.1765   42.3699   53.4499 C   0  0  0  0  0  0  0  0  0  0  0  0
    0.3890   42.4320   52.1245 C   0  0  0  0  0  0  0  0  0  0  0  0
    0.9985   43.8332   51.9116 C   0  0  0  0  0  0  0  0  0  0  0  0
    3.4859   44.9009   53.1815 N   0  0  0  0  0  0  0  0  0  0  0  0
    7.9589   46.0934   53.1684 C   0  0  0  0  0  0  0  0  0  0  0  0
    9.0359   46.4435   54.0037 C   0  0  0  0  0  0  0  0  0  0  0  0
   10.1672   47.0843   53.4960 C   0  0  0  0  0  0  0  0  0  0  0  0
   10.2391   47.3815   52.1404 C   0  0  0  0  0  0  0  0  0  0  0  0
    9.1835   47.0437   51.2932 C   0  0  0  0  0  0  0  0  0  0  0  0
    8.0352   46.4120   51.7945 C   0  0  0  0  0  0  0  0  0  0  0  0
    6.9893   46.0464   50.9884 O   0  0  0  0  0  0  0  0  0  0  0  0
    7.1845   44.9313   50.1178 C   0  0  0  0  0  0  0  0  0  0  0  0
    6.1789   43.8825   50.5252 C   0  0  0  0  0  0  0  0  0  0  0  0
    4.8814   43.9054   49.9897 C   0  0  0  0  0  0  0  0  0  0  0  0
    3.9329   42.9656   50.3940 C   0  0  0  0  0  0  0  0  0  0  0  0
    4.2785   42.0065   51.3377 C   0  0  0  0  0  0  0  0  0  0  0  0
    3.3656   41.1085   51.7317 F   0  0  0  0  0  0  0  0  0  0  0  0
    5.5548   41.9696   51.8856 C   0  0  0  0  0  0  0  0  0  0  0  0
    6.5063   42.9090   51.4829 C   0  0  0  0  0  0  0  0  0  0  0  0
    5.4549   46.6988   52.9017 H   0  0  0  0  0  0  0  0  0  0  0  0
    2.1111   44.9562   56.0325 H   0  0  0  0  0  0  0  0  0  0  0  0
    0.4487   44.4828   54.0827 H   0  0  0  0  0  0  0  0  0  0  0  0
    2.1801   41.9269   53.3682 H   0  0  0  0  0  0  0  0  0  0  0  0
    0.8217   41.7825   54.3096 H   0  0  0  0  0  0  0  0  0  0  0  0
    0.6880   41.6825   51.3769 H   0  0  0  0  0  0  0  0  0  0  0  0
   -0.6968   42.2599   52.0863 H   0  0  0  0  0  0  0  0  0  0  0  0
    1.9472   43.8421   51.3547 H   0  0  0  0  0  0  0  0  0  0  0  0
    0.4774   44.6117   51.3351 H   0  0  0  0  0  0  0  0  0  0  0  0
    8.9853   46.2077   55.0769 H   0  0  0  0  0  0  0  0  0  0  0  0
   10.9976   47.3528   54.1656 H   0  0  0  0  0  0  0  0  0  0  0  0
   11.1297   47.8838   51.7348 H   0  0  0  0  0  0  0  0  0  0  0  0
    9.2522   47.2752   50.2200 H   0  0  0  0  0  0  0  0  0  0  0  0
    7.0167   45.2320   49.0731 H   0  0  0  0  0  0  0  0  0  0  0  0
    8.2118   44.5453   50.1933 H   0  0  0  0  0  0  0  0  0  0  0  0
    4.6107   44.6697   49.2463 H   0  0  0  0  0  0  0  0  0  0  0  0
    2.9187   42.9839   49.9685 H   0  0  0  0  0  0  0  0  0  0  0  0
    5.8142   41.2047   52.6324 H   0  0  0  0  0  0  0  0  0  0  0  0
    7.5165   42.8863   51.9177 H   0  0  0  0  0  0  0  0  0  0  0  0
  1  2  2  0
  2  3  1  0
  3  4  1  0
  4  5  2  0
  5  6  1  0
  6  7  1  0
  7  8  1  0
  8  9  1  0
  9 10  1  0
 10 11  1  0
  7 12  2  0
  2 13  1  0
 13 14  2  0
 14 15  1  0
 15 16  2  0
 16 17  1  0
 17 18  2  0
 18 19  1  0
 19 20  1  0
 20 21  1  0
 21 22  2  0
 22 23  1  0
 23 24  2  0
 24 25  1  0
 24 26  1  0
 26 27  2  0
 12  4  1  0
 18 13  1  0
 27 21  1  0
 11  8  1  0
  3 28  1  0
  6 29  1  0
  8 30  1  0
  9 31  1  0
  9 32  1  0
 10 33  1  0
 10 34  1  0
 11 35  1  0
 11 36  1  0
 14 37  1  0
 15 38  1  0
 16 39  1  0
 17 40  1  0
 20 41  1  0
 20 42  1  0
 22 43  1  0
 23 44  1  0
 26 45  1  0
 27 46  1  0
M  END
>  <meeko>  (1) 
{"is_sidechain": false}

>  <CID>  (1) 
Z1677967961

>  <pose_index>  (1) 
6

>  <docking_score>  (1) 
-8.963

>  <rmsd_to_best_selected>  (1) 
1.3485055465022486

>  <MWT>  (1) 
366.39599999999973

>  <TPSA>  (1) 
79.9

>  <logP>  (1) 
4.042600000000003

>  <HBD>  (1) 
2

>  <HBA>  (1) 
4

>  <SMILES>  (1) 
[H]c1c([H])c([H])c(C(=O)N([H])c2nc(C3([H])C([H])([H])C([H])([H])C3([H])[H])n([H])n2)c(OC([H])([H])c2c([H])c([H])c(F)c([H])c2[H])c1[H]

$$$$
Z1677967961_pose1
     RDKit          3D

 46 49  0  0  0  0  0  0  0  0999 V2000
    5.5150   47.7540   53.8420 O   0  0  0  0  0  0  0  0  0  0  0  0
    6.1160   46.6830   53.7950 C   0  0  0  0  0  0  0  0  0  0  0  0
    5.6010   45.4600   54.1360 N   0  0  0  0  0  0  0  0  0  0  0  0
    4.3320   45.2020   54.5610 C   0  0  0  0  0  0  0  0  0  0  0  0
    3.8030   45.3970   55.7700 N   0  0  0  0  0  0  0  0  0  0  0  0
    2.5470   44.9700   55.5980 N   0  0  0  0  0  0  0  0  0  0  0  0
    2.3430   44.5450   54.3210 C   0  0  0  0  0  0  0  0  0  0  0  0
    1.0070   43.9990   53.7590 C   0  0  0  0  0  0  0  0  0  0  0  0
    0.9630   42.4720   53.5010 C   0  0  0  0  0  0  0  0  0  0  0  0
    0.1590   42.7870   52.2220 C   0  0  0  0  0  0  0  0  0  0  0  0
    0.8280   44.1780   52.2310 C   0  0  0  0  0  0  0  0  0  0  0  0
    3.4590   44.6810   53.6420 N   0  0  0  0  0  0  0  0  0  0  0  0
    7.5470   46.6920   53.3130 C   0  0  0  0  0  0  0  0  0  0  0  0
    8.5120   47.1530   54.2290 C   0  0  0  0  0  0  0  0  0  0  0  0
    9.8630   47.2130   53.8870 C   0  0  0  0  0  0  0  0  0  0  0  0
   10.2720   46.8090   52.6220 C   0  0  0  0  0  0  0  0  0  0  0  0
    9.3340   46.3480   51.6980 C   0  0  0  0  0  0  0  0  0  0  0  0
    7.9700   46.2960   52.0250 C   0  0  0  0  0  0  0  0  0  0  0  0
    7.0240   45.8290   51.1510 O   0  0  0  0  0  0  0  0  0  0  0  0
    7.4600   44.9520   50.1120 C   0  0  0  0  0  0  0  0  0  0  0  0
    6.5100   43.7790   50.1090 C   0  0  0  0  0  0  0  0  0  0  0  0
    5.3520   43.8090   50.9020 C   0  0  0  0  0  0  0  0  0  0  0  0
    4.4910   42.7120   50.9380 C   0  0  0  0  0  0  0  0  0  0  0  0
    4.7900   41.5820   50.1870 C   0  0  0  0  0  0  0  0  0  0  0  0
    3.9670   40.5250   50.2270 F   0  0  0  0  0  0  0  0  0  0  0  0
    5.9340   41.5280   49.4000 C   0  0  0  0  0  0  0  0  0  0  0  0
    6.7970   42.6250   49.3630 C   0  0  0  0  0  0  0  0  0  0  0  0
    6.1780   44.6320   54.0810 H   0  0  0  0  0  0  0  0  0  0  0  0
    1.9010   45.0020   56.3780 H   0  0  0  0  0  0  0  0  0  0  0  0
    0.3410   44.4786   54.4914 H   0  0  0  0  0  0  0  0  0  0  0  0
    1.9442   42.0070   53.3245 H   0  0  0  0  0  0  0  0  0  0  0  0
    0.5950   41.7651   54.2592 H   0  0  0  0  0  0  0  0  0  0  0  0
    0.4127   42.1608   51.3540 H   0  0  0  0  0  0  0  0  0  0  0  0
   -0.9339   42.6692   52.1800 H   0  0  0  0  0  0  0  0  0  0  0  0
    1.7674   44.2401   51.6622 H   0  0  0  0  0  0  0  0  0  0  0  0
    0.3338   45.0630   51.8038 H   0  0  0  0  0  0  0  0  0  0  0  0
    8.1946   47.4717   55.2328 H   0  0  0  0  0  0  0  0  0  0  0  0
   10.6015   47.5786   54.6157 H   0  0  0  0  0  0  0  0  0  0  0  0
   11.3366   46.8527   52.3488 H   0  0  0  0  0  0  0  0  0  0  0  0
    9.6671   46.0215   50.7018 H   0  0  0  0  0  0  0  0  0  0  0  0
    7.4280   45.4685   49.1413 H   0  0  0  0  0  0  0  0  0  0  0  0
    8.4959   44.6224   50.2805 H   0  0  0  0  0  0  0  0  0  0  0  0
    5.1220   44.7037   51.4991 H   0  0  0  0  0  0  0  0  0  0  0  0
    3.5819   42.7414   51.5565 H   0  0  0  0  0  0  0  0  0  0  0  0
    6.1582   40.6270   48.8101 H   0  0  0  0  0  0  0  0  0  0  0  0
    7.7067   42.5847   48.7459 H   0  0  0  0  0  0  0  0  0  0  0  0
  1  2  2  0
  2  3  1  0
  3  4  1  0
  4  5  2  0
  5  6  1  0
  6  7  1  0
  7  8  1  0
  8  9  1  0
  9 10  1  0
 10 11  1  0
  7 12  2  0
  2 13  1  0
 13 14  2  0
 14 15  1  0
 15 16  2  0
 16 17  1  0
 17 18  2  0
 18 19  1  0
 19 20  1  0
 20 21  1  0
 21 22  2  0
 22 23  1  0
 23 24  2  0
 24 25  1  0
 24 26  1  0
 26 27  2  0
 12  4  1  0
 18 13  1  0
 27 21  1  0
 11  8  1  0
  3 28  1  0
  6 29  1  0
  8 30  1  0
  9 31  1  0
  9 32  1  0
 10 33  1  0
 10 34  1  0
 11 35  1  0
 11 36  1  0
 14 37  1  0
 15 38  1  0
 16 39  1  0
 17 40  1  0
 20 41  1  0
 20 42  1  0
 22 43  1  0
 23 44  1  0
 26 45  1  0
 27 46  1  0
M  END
>  <meeko>  (2) 
{"is_sidechain": false}

>  <CID>  (2) 
Z1677967961

>  <pose_index>  (2) 
1

>  <docking_score>  (2) 
-10.308

>  <rmsd_to_best_selected>  (2) 
0.0

>  <MWT>  (2) 
366.39599999999973

>  <TPSA>  (2) 
79.9

>  <logP>  (2) 
4.042600000000003

>  <HBD>  (2) 
2

>  <HBA>  (2) 
4

>  <SMILES>  (2) 
[H]c1c([H])c([H])c(C(=O)N([H])c2nc(C3([H])C([H])([H])C([H])([H])C3([H])[H])n([H])n2)c(OC([H])([H])c2c([H])c([H])c(F)c([H])c2[H])c1[H]

$$$$
Z1677967961_pose4
     RDKit          3D

 46 49  0  0  0  0  0  0  0  0999 V2000
    6.7124   44.8305   55.4500 O   0  0  0  0  0  0  0  0  0  0  0  0
    6.6432   45.5032   54.4249 C   0  0  0  0  0  0  0  0  0  0  0  0
    5.4915   45.8491   53.7687 N   0  0  0  0  0  0  0  0  0  0  0  0
    4.2192   45.5356   54.1413 C   0  0  0  0  0  0  0  0  0  0  0  0
    3.4465   46.1312   55.0501 N   0  0  0  0  0  0  0  0  0  0  0  0
    2.3246   45.4048   54.9851 N   0  0  0  0  0  0  0  0  0  0  0  0
    2.4335   44.4151   54.0556 C   0  0  0  0  0  0  0  0  0  0  0  0
    1.3276   43.3931   53.6997 C   0  0  0  0  0  0  0  0  0  0  0  0
    1.4212   42.7718   52.2836 C   0  0  0  0  0  0  0  0  0  0  0  0
   -0.1172   42.8743   52.2186 C   0  0  0  0  0  0  0  0  0  0  0  0
   -0.0116   44.0232   53.2427 C   0  0  0  0  0  0  0  0  0  0  0  0
    3.6257   44.4753   53.5056 N   0  0  0  0  0  0  0  0  0  0  0  0
    7.9314   46.0139   53.8229 C   0  0  0  0  0  0  0  0  0  0  0  0
    8.8951   46.4973   54.7260 C   0  0  0  0  0  0  0  0  0  0  0  0
   10.1170   47.0022   54.2800 C   0  0  0  0  0  0  0  0  0  0  0  0
   10.3956   47.0261   52.9186 C   0  0  0  0  0  0  0  0  0  0  0  0
    9.4556   46.5508   52.0039 C   0  0  0  0  0  0  0  0  0  0  0  0
    8.2178   46.0547   52.4398 C   0  0  0  0  0  0  0  0  0  0  0  0
    7.2794   45.5601   51.5714 O   0  0  0  0  0  0  0  0  0  0  0  0
    7.7307   44.6756   50.5446 C   0  0  0  0  0  0  0  0  0  0  0  0
    6.5841   43.7422   50.2442 C   0  0  0  0  0  0  0  0  0  0  0  0
    6.2334   43.4652   48.9126 C   0  0  0  0  0  0  0  0  0  0  0  0
    5.1479   42.6360   48.6267 C   0  0  0  0  0  0  0  0  0  0  0  0
    4.4094   42.0905   49.6681 C   0  0  0  0  0  0  0  0  0  0  0  0
    3.3623   41.2997   49.3920 F   0  0  0  0  0  0  0  0  0  0  0  0
    4.7355   42.3558   50.9924 C   0  0  0  0  0  0  0  0  0  0  0  0
    5.8207   43.1848   51.2825 C   0  0  0  0  0  0  0  0  0  0  0  0
    5.5349   46.3939   52.9186 H   0  0  0  0  0  0  0  0  0  0  0  0
    1.5452   45.6406   55.5880 H   0  0  0  0  0  0  0  0  0  0  0  0
    1.4104   42.7759   54.6065 H   0  0  0  0  0  0  0  0  0  0  0  0
    1.9548   43.3884   51.5453 H   0  0  0  0  0  0  0  0  0  0  0  0
    1.9487   41.8244   52.0986 H   0  0  0  0  0  0  0  0  0  0  0  0
   -0.5170   43.1690   51.2371 H   0  0  0  0  0  0  0  0  0  0  0  0
   -0.7646   42.0017   52.3903 H   0  0  0  0  0  0  0  0  0  0  0  0
    0.0796   45.0263   52.8006 H   0  0  0  0  0  0  0  0  0  0  0  0
   -0.8217   44.2441   53.9533 H   0  0  0  0  0  0  0  0  0  0  0  0
    8.6814   46.4770   55.8049 H   0  0  0  0  0  0  0  0  0  0  0  0
   10.8560   47.3795   55.0021 H   0  0  0  0  0  0  0  0  0  0  0  0
   11.3586   47.4202   52.5619 H   0  0  0  0  0  0  0  0  0  0  0  0
    9.6875   46.5652   50.9287 H   0  0  0  0  0  0  0  0  0  0  0  0
    8.0012   45.2464   49.6440 H   0  0  0  0  0  0  0  0  0  0  0  0
    8.6225   44.1175   50.8658 H   0  0  0  0  0  0  0  0  0  0  0  0
    6.8176   43.9043   48.0905 H   0  0  0  0  0  0  0  0  0  0  0  0
    4.8791   42.4161   47.5829 H   0  0  0  0  0  0  0  0  0  0  0  0
    4.1422   41.9152   51.8073 H   0  0  0  0  0  0  0  0  0  0  0  0
    6.0789   43.4023   52.3294 H   0  0  0  0  0  0  0  0  0  0  0  0
  1  2  2  0
  2  3  1  0
  3  4  1  0
  4  5  2  0
  5  6  1  0
  6  7  1  0
  7  8  1  0
  8  9  1  0
  9 10  1  0
 10 11  1  0
  7 12  2  0
  2 13  1  0
 13 14  2  0
 14 15  1  0
 15 16  2  0
 16 17  1  0
 17 18  2  0
 18 19  1  0
 19 20  1  0
 20 21  1  0
 21 22  2  0
 22 23  1  0
 23 24  2  0
 24 25  1  0
 24 26  1  0
 26 27  2  0
 12  4  1  0
 18 13  1  0
 27 21  1  0
 11  8  1  0
  3 28  1  0
  6 29  1  0
  8 30  1  0
  9 31  1  0
  9 32  1  0
 10 33  1  0
 10 34  1  0
 11 35  1  0
 11 36  1  0
 14 37  1  0
 15 38  1  0
 16 39  1  0
 17 40  1  0
 20 41  1  0
 20 42  1  0
 22 43  1  0
 23 44  1  0
 26 45  1  0
 27 46  1  0
M  END
>  <meeko>  (3) 
{"is_sidechain": false}

>  <CID>  (3) 
Z1677967961

>  <pose_index>  (3) 
4

>  <docking_score>  (3) 
-9.62

>  <rmsd_to_best_selected>  (3) 
1.236752262043511

>  <MWT>  (3) 
366.39599999999973

>  <TPSA>  (3) 
79.9

>  <logP>  (3) 
4.042600000000003

>  <HBD>  (3) 
2

>  <HBA>  (3) 
4

>  <SMILES>  (3) 
[H]c1c([H])c([H])c(C(=O)N([H])c2nc(C3([H])C([H])([H])C([H])([H])C3([H])[H])n([H])n2)c(OC([H])([H])c2c([H])c([H])c(F)c([H])c2[H])c1[H]

$$$$
Z1677967961_pose9
     RDKit          3D

 46 49  0  0  0  0  0  0  0  0999 V2000
    5.9288   47.6358   53.7719 O   0  0  0  0  0  0  0  0  0  0  0  0
    6.5537   46.6030   53.5448 C   0  0  0  0  0  0  0  0  0  0  0  0
    6.1157   45.3294   53.7980 N   0  0  0  0  0  0  0  0  0  0  0  0
    4.9084   44.9738   54.3198 C   0  0  0  0  0  0  0  0  0  0  0  0
    4.5578   44.8549   55.6008 N   0  0  0  0  0  0  0  0  0  0  0  0
    3.2748   44.4878   55.5074 N   0  0  0  0  0  0  0  0  0  0  0  0
    2.8824   44.4018   54.2073 C   0  0  0  0  0  0  0  0  0  0  0  0
    1.4632   44.0198   53.7211 C   0  0  0  0  0  0  0  0  0  0  0  0
    0.8375   42.7727   54.3950 C   0  0  0  0  0  0  0  0  0  0  0  0
    0.2700   42.4004   53.0096 C   0  0  0  0  0  0  0  0  0  0  0  0
    1.4274   43.2174   52.3974 C   0  0  0  0  0  0  0  0  0  0  0  0
    3.8993   44.7046   53.4329 N   0  0  0  0  0  0  0  0  0  0  0  0
    7.9241   46.7247   52.9229 C   0  0  0  0  0  0  0  0  0  0  0  0
    8.7260   47.7876   53.3782 C   0  0  0  0  0  0  0  0  0  0  0  0
   10.0052   48.0009   52.8645 C   0  0  0  0  0  0  0  0  0  0  0  0
   10.5072   47.1487   51.8885 C   0  0  0  0  0  0  0  0  0  0  0  0
    9.7308   46.0869   51.4217 C   0  0  0  0  0  0  0  0  0  0  0  0
    8.4363   45.8712   51.9196 C   0  0  0  0  0  0  0  0  0  0  0  0
    7.6548   44.8262   51.5009 O   0  0  0  0  0  0  0  0  0  0  0  0
    6.8207   45.0397   50.3616 C   0  0  0  0  0  0  0  0  0  0  0  0
    5.7912   43.9371   50.3663 C   0  0  0  0  0  0  0  0  0  0  0  0
    5.9926   42.7894   51.1497 C   0  0  0  0  0  0  0  0  0  0  0  0
    5.0661   41.7469   51.1268 C   0  0  0  0  0  0  0  0  0  0  0  0
    3.9418   41.8472   50.3169 C   0  0  0  0  0  0  0  0  0  0  0  0
    3.0560   40.8425   50.2903 F   0  0  0  0  0  0  0  0  0  0  0  0
    3.7259   42.9711   49.5300 C   0  0  0  0  0  0  0  0  0  0  0  0
    4.6516   44.0155   49.5503 C   0  0  0  0  0  0  0  0  0  0  0  0
    6.7100   44.5378   53.5922 H   0  0  0  0  0  0  0  0  0  0  0  0
    2.7428   44.3213   56.3548 H   0  0  0  0  0  0  0  0  0  0  0  0
    1.0093   45.0169   53.8194 H   0  0  0  0  0  0  0  0  0  0  0  0
    1.5660   42.0555   54.8012 H   0  0  0  0  0  0  0  0  0  0  0  0
    0.1939   42.8541   55.2833 H   0  0  0  0  0  0  0  0  0  0  0  0
    0.2930   41.3255   52.7772 H   0  0  0  0  0  0  0  0  0  0  0  0
   -0.7799   42.5908   52.7421 H   0  0  0  0  0  0  0  0  0  0  0  0
    2.3381   42.6375   52.1867 H   0  0  0  0  0  0  0  0  0  0  0  0
    1.3343   43.7136   51.4201 H   0  0  0  0  0  0  0  0  0  0  0  0
    8.3366   48.4633   54.1540 H   0  0  0  0  0  0  0  0  0  0  0  0
   10.6142   48.8405   53.2306 H   0  0  0  0  0  0  0  0  0  0  0  0
   11.5170   47.3110   51.4836 H   0  0  0  0  0  0  0  0  0  0  0  0
   10.1381   45.4114   50.6549 H   0  0  0  0  0  0  0  0  0  0  0  0
    6.3267   46.0200   50.4315 H   0  0  0  0  0  0  0  0  0  0  0  0
    7.4091   45.0280   49.4322 H   0  0  0  0  0  0  0  0  0  0  0  0
    6.8868   42.7119   51.7856 H   0  0  0  0  0  0  0  0  0  0  0  0
    5.2247   40.8515   51.7457 H   0  0  0  0  0  0  0  0  0  0  0  0
    2.8306   43.0378   48.8944 H   0  0  0  0  0  0  0  0  0  0  0  0
    4.4874   44.9045   48.9237 H   0  0  0  0  0  0  0  0  0  0  0  0
  1  2  2  0
  2  3  1  0
  3  4  1  0
  4  5  2  0
  5  6  1  0
  6  7  1  0
  7  8  1  0
  8  9  1  0
  9 10  1  0
 10 11  1  0
  7 12  2  0
  2 13  1  0
 13 14  2  0
 14 15  1  0
 15 16  2  0
 16 17  1  0
 17 18  2  0
 18 19  1  0
 19 20  1  0
 20 21  1  0
 21 22  2  0
 22 23  1  0
 23 24  2  0
 24 25  1  0
 24 26  1  0
 26 27  2  0
 12  4  1  0
 18 13  1  0
 27 21  1  0
 11  8  1  0
  3 28  1  0
  6 29  1  0
  8 30  1  0
  9 31  1  0
  9 32  1  0
 10 33  1  0
 10 34  1  0
 11 35  1  0
 11 36  1  0
 14 37  1  0
 15 38  1  0
 16 39  1  0
 17 40  1  0
 20 41  1  0
 20 42  1  0
 22 43  1  0
 23 44  1  0
 26 45  1  0
 27 46  1  0
M  END
>  <meeko>  (4) 
{"is_sidechain": false}

>  <CID>  (4) 
Z1677967961

>  <pose_index>  (4) 
9

>  <docking_score>  (4) 
-8.555

>  <rmsd_to_best_selected>  (4) 
1.3129884845251745

>  <MWT>  (4) 
366.39599999999973

>  <TPSA>  (4) 
79.9

>  <logP>  (4) 
4.042600000000003

>  <HBD>  (4) 
2

>  <HBA>  (4) 
4

>  <SMILES>  (4) 
[H]c1c([H])c([H])c(C(=O)N([H])c2nc(C3([H])C([H])([H])C([H])([H])C3([H])[H])n([H])n2)c(OC([H])([H])c2c([H])c([H])c(F)c([H])c2[H])c1[H]

$$$$
Z1677967961_pose10
     RDKit          3D

 46 49  0  0  0  0  0  0  0  0999 V2000
    5.7734   47.5021   53.0229 O   0  0  0  0  0  0  0  0  0  0  0  0
    6.5085   46.5328   53.1914 C   0  0  0  0  0  0  0  0  0  0  0  0
    6.1309   45.3228   53.7119 N   0  0  0  0  0  0  0  0  0  0  0  0
    4.8776   44.9647   54.1117 C   0  0  0  0  0  0  0  0  0  0  0  0
    4.3115   45.1130   55.3093 N   0  0  0  0  0  0  0  0  0  0  0  0
    3.0963   44.5905   55.1119 N   0  0  0  0  0  0  0  0  0  0  0  0
    2.9511   44.1546   53.8295 C   0  0  0  0  0  0  0  0  0  0  0  0
    1.6739   43.5095   53.2403 C   0  0  0  0  0  0  0  0  0  0  0  0
    0.4677   43.4061   54.2075 C   0  0  0  0  0  0  0  0  0  0  0  0
    0.1847   42.0222   53.5867 C   0  0  0  0  0  0  0  0  0  0  0  0
    1.6829   41.9613   53.2197 C   0  0  0  0  0  0  0  0  0  0  0  0
    4.0670   44.3807   53.1734 N   0  0  0  0  0  0  0  0  0  0  0  0
    7.9579   46.6603   52.7882 C   0  0  0  0  0  0  0  0  0  0  0  0
    8.6929   47.6842   53.4143 C   0  0  0  0  0  0  0  0  0  0  0  0
   10.0381   47.9003   53.1104 C   0  0  0  0  0  0  0  0  0  0  0  0
   10.6707   47.0889   52.1758 C   0  0  0  0  0  0  0  0  0  0  0  0
    9.9623   46.0669   51.5428 C   0  0  0  0  0  0  0  0  0  0  0  0
    8.6061   45.8508   51.8296 C   0  0  0  0  0  0  0  0  0  0  0  0
    7.8857   44.8425   51.2436 O   0  0  0  0  0  0  0  0  0  0  0  0
    6.9748   45.2000   50.2030 C   0  0  0  0  0  0  0  0  0  0  0  0
    5.8442   44.2021   50.2556 C   0  0  0  0  0  0  0  0  0  0  0  0
    6.1016   42.8646   50.6004 C   0  0  0  0  0  0  0  0  0  0  0  0
    5.0690   41.9269   50.6093 C   0  0  0  0  0  0  0  0  0  0  0  0
    3.7815   42.3212   50.2673 C   0  0  0  0  0  0  0  0  0  0  0  0
    2.7917   41.4189   50.2695 F   0  0  0  0  0  0  0  0  0  0  0  0
    3.5060   43.6374   49.9171 C   0  0  0  0  0  0  0  0  0  0  0  0
    4.5370   44.5788   49.9066 C   0  0  0  0  0  0  0  0  0  0  0  0
    6.8121   44.5854   53.8301 H   0  0  0  0  0  0  0  0  0  0  0  0
    2.4340   44.5686   55.8792 H   0  0  0  0  0  0  0  0  0  0  0  0
    1.6249   44.1118   52.3212 H   0  0  0  0  0  0  0  0  0  0  0  0
    0.7344   43.3856   55.2745 H   0  0  0  0  0  0  0  0  0  0  0  0
   -0.3039   44.1883   54.2596 H   0  0  0  0  0  0  0  0  0  0  0  0
   -0.1443   41.2556   54.3037 H   0  0  0  0  0  0  0  0  0  0  0  0
   -0.6035   41.8742   52.8339 H   0  0  0  0  0  0  0  0  0  0  0  0
    2.3244   41.4950   53.9820 H   0  0  0  0  0  0  0  0  0  0  0  0
    2.0452   41.3940   52.3497 H   0  0  0  0  0  0  0  0  0  0  0  0
    8.1978   48.3265   54.1575 H   0  0  0  0  0  0  0  0  0  0  0  0
   10.5945   48.7084   53.6078 H   0  0  0  0  0  0  0  0  0  0  0  0
   11.7314   47.2527   51.9348 H   0  0  0  0  0  0  0  0  0  0  0  0
   10.4728   45.4235   50.8111 H   0  0  0  0  0  0  0  0  0  0  0  0
    6.5906   46.2174   50.3682 H   0  0  0  0  0  0  0  0  0  0  0  0
    7.4701   45.1857   49.2209 H   0  0  0  0  0  0  0  0  0  0  0  0
    7.1235   42.5551   50.8647 H   0  0  0  0  0  0  0  0  0  0  0  0
    5.2728   40.8818   50.8855 H   0  0  0  0  0  0  0  0  0  0  0  0
    2.4816   43.9359   49.6497 H   0  0  0  0  0  0  0  0  0  0  0  0
    4.3245   45.6203   49.6236 H   0  0  0  0  0  0  0  0  0  0  0  0
  1  2  2  0
  2  3  1  0
  3  4  1  0
  4  5  2  0
  5  6  1  0
  6  7  1  0
  7  8  1  0
  8  9  1  0
  9 10  1  0
 10 11  1  0
  7 12  2  0
  2 13  1  0
 13 14  2  0
 14 15  1  0
 15 16  2  0
 16 17  1  0
 17 18  2  0
 18 19  1  0
 19 20  1  0
 20 21  1  0
 21 22  2  0
 22 23  1  0
 23 24  2  0
 24 25  1  0
 24 26  1  0
 26 27  2  0
 12  4  1  0
 18 13  1  0
 27 21  1  0
 11  8  1  0
  3 28  1  0
  6 29  1  0
  8 30  1  0
  9 31  1  0
  9 32  1  0
 10 33  1  0
 10 34  1  0
 11 35  1  0
 11 36  1  0
 14 37  1  0
 15 38  1  0
 16 39  1  0
 17 40  1  0
 20 41  1  0
 20 42  1  0
 22 43  1  0
 23 44  1  0
 26 45  1  0
 27 46  1  0
M  END
>  <meeko>  (5) 
{"is_sidechain": false}

>  <CID>  (5) 
Z1677967961

>  <pose_index>  (5) 
10

>  <docking_score>  (5) 
-8.552

>  <rmsd_to_best_selected>  (5) 
1.4431352832389481

>  <MWT>  (5) 
366.39599999999973

>  <TPSA>  (5) 
79.9

>  <logP>  (5) 
4.042600000000003

>  <HBD>  (5) 
2

>  <HBA>  (5) 
4

>  <SMILES>  (5) 
[H]c1c([H])c([H])c(C(=O)N([H])c2nc(C3([H])C([H])([H])C([H])([H])C3([H])[H])n([H])n2)c(OC([H])([H])c2c([H])c([H])c(F)c([H])c2[H])c1[H]

$$$$
