Z1673780356_pose5
     RDKit          3D

 42 44  0  0  0  0  0  0  0  0999 V2000
    6.3788   48.6079   54.3913 O   0  0  0  0  0  0  0  0  0  0  0  0
    6.4955   47.6816   53.5940 C   0  0  0  0  0  0  0  0  0  0  0  0
    5.4044   47.0063   53.1000 N   0  0  0  0  0  0  0  0  0  0  0  0
    4.0638   47.4854   53.3244 C   0  0  0  0  0  0  0  0  0  0  0  0
    3.1703   46.8581   52.3303 C   0  0  0  0  0  0  0  0  0  0  0  0
    3.3643   45.9998   51.2753 C   0  0  0  0  0  0  0  0  0  0  0  0
    2.0776   45.8248   50.7378 C   0  0  0  0  0  0  0  0  0  0  0  0
    1.1544   46.5233   51.4053 N   0  0  0  0  0  0  0  0  0  0  0  0
    1.8476   47.1736   52.4138 O   0  0  0  0  0  0  0  0  0  0  0  0
    7.8537   47.2371   53.1307 C   0  0  0  0  0  0  0  0  0  0  0  0
    8.8454   48.2371   53.1056 C   0  0  0  0  0  0  0  0  0  0  0  0
   10.1449   47.9441   52.6999 C   0  0  0  0  0  0  0  0  0  0  0  0
   10.4642   46.6499   52.3137 C   0  0  0  0  0  0  0  0  0  0  0  0
    9.4886   45.6487   52.3267 C   0  0  0  0  0  0  0  0  0  0  0  0
    8.1756   45.9202   52.7266 C   0  0  0  0  0  0  0  0  0  0  0  0
    7.1667   45.0024   52.7500 O   0  0  0  0  0  0  0  0  0  0  0  0
    6.8695   44.0574   51.7197 C   0  0  0  0  0  0  0  0  0  0  0  0
    6.6187   44.6904   50.3465 C   0  0  0  0  0  0  0  0  0  0  0  0
    6.4001   43.6274   49.2718 C   0  0  0  0  0  0  0  0  0  0  0  0
    5.3262   42.6217   49.6792 C   0  0  0  0  0  0  0  0  0  0  0  0
    5.6588   41.9528   51.0105 C   0  0  0  0  0  0  0  0  0  0  0  0
    5.8590   42.9777   52.1252 C   0  0  0  0  0  0  0  0  0  0  0  0
    5.5661   46.3886   52.3121 H   0  0  0  0  0  0  0  0  0  0  0  0
    3.7379   47.2145   54.3395 H   0  0  0  0  0  0  0  0  0  0  0  0
    4.0324   48.5802   53.2220 H   0  0  0  0  0  0  0  0  0  0  0  0
    4.3085   45.5529   50.9308 H   0  0  0  0  0  0  0  0  0  0  0  0
    1.8563   45.1872   49.8692 H   0  0  0  0  0  0  0  0  0  0  0  0
    8.5901   49.2627   53.4105 H   0  0  0  0  0  0  0  0  0  0  0  0
   10.9122   48.7322   52.6856 H   0  0  0  0  0  0  0  0  0  0  0  0
   11.4897   46.4108   51.9959 H   0  0  0  0  0  0  0  0  0  0  0  0
    9.7584   44.6283   52.0168 H   0  0  0  0  0  0  0  0  0  0  0  0
    7.8048   43.4946   51.5839 H   0  0  0  0  0  0  0  0  0  0  0  0
    5.7247   45.3286   50.4050 H   0  0  0  0  0  0  0  0  0  0  0  0
    7.5046   45.2817   50.0720 H   0  0  0  0  0  0  0  0  0  0  0  0
    6.0895   44.1220   48.3397 H   0  0  0  0  0  0  0  0  0  0  0  0
    7.3451   43.0814   49.1338 H   0  0  0  0  0  0  0  0  0  0  0  0
    4.3637   43.1458   49.7736 H   0  0  0  0  0  0  0  0  0  0  0  0
    5.2743   41.8414   48.9056 H   0  0  0  0  0  0  0  0  0  0  0  0
    4.8327   41.2815   51.2880 H   0  0  0  0  0  0  0  0  0  0  0  0
    6.5980   41.3935   50.8872 H   0  0  0  0  0  0  0  0  0  0  0  0
    4.8941   43.4566   52.3481 H   0  0  0  0  0  0  0  0  0  0  0  0
    6.2494   42.4539   53.0101 H   0  0  0  0  0  0  0  0  0  0  0  0
  1  2  2  0
  2  3  1  0
  3  4  1  0
  4  5  1  0
  5  6  2  0
  6  7  1  0
  7  8  2  0
  8  9  1  0
  2 10  1  0
 10 11  2  0
 11 12  1  0
 12 13  2  0
 13 14  1  0
 14 15  2  0
 15 16  1  0
 16 17  1  0
 17 18  1  0
 18 19  1  0
 19 20  1  0
 20 21  1  0
 21 22  1  0
  9  5  1  0
 15 10  1  0
 22 17  1  0
  3 23  1  0
  4 24  1  0
  4 25  1  0
  6 26  1  0
  7 27  1  0
 11 28  1  0
 12 29  1  0
 13 30  1  0
 14 31  1  0
 17 32  1  0
 18 33  1  0
 18 34  1  0
 19 35  1  0
 19 36  1  0
 20 37  1  0
 20 38  1  0
 21 39  1  0
 21 40  1  0
 22 41  1  0
 22 42  1  0
M  END
>  <meeko>  (1) 
{"is_sidechain": false}

>  <CID>  (1) 
Z1673780356

>  <pose_index>  (1) 
5

>  <docking_score>  (1) 
-8.522

>  <rmsd_to_best_selected>  (1) 
1.578102452842135

>  <MWT>  (1) 
300.3579999999996

>  <TPSA>  (1) 
64.36

>  <logP>  (1) 
3.3161000000000023

>  <HBD>  (1) 
1

>  <HBA>  (1) 
4

>  <SMILES>  (1) 
[H]c1noc(C([H])([H])N([H])C(=O)c2c([H])c([H])c([H])c([H])c2OC2([H])C([H])([H])C([H])([H])C([H])([H])C([H])([H])C2([H])[H])c1[H]

$$$$
Z1673780356_pose1
     RDKit          3D

 42 44  0  0  0  0  0  0  0  0999 V2000
    5.8670   46.2950   54.8710 O   0  0  0  0  0  0  0  0  0  0  0  0
    6.1540   46.7890   53.7840 C   0  0  0  0  0  0  0  0  0  0  0  0
    5.2100   47.3870   52.9860 N   0  0  0  0  0  0  0  0  0  0  0  0
    3.8800   47.6560   53.4730 C   0  0  0  0  0  0  0  0  0  0  0  0
    2.9450   46.7150   52.8240 C   0  0  0  0  0  0  0  0  0  0  0  0
    2.7990   46.2410   51.5430 C   0  0  0  0  0  0  0  0  0  0  0  0
    1.6870   45.3860   51.6220 C   0  0  0  0  0  0  0  0  0  0  0  0
    1.1780   45.3340   52.8560 N   0  0  0  0  0  0  0  0  0  0  0  0
    1.9770   46.1730   53.6160 O   0  0  0  0  0  0  0  0  0  0  0  0
    7.5670   46.7470   53.2750 C   0  0  0  0  0  0  0  0  0  0  0  0
    8.5690   46.9810   54.2380 C   0  0  0  0  0  0  0  0  0  0  0  0
    9.9160   46.9610   53.8860 C   0  0  0  0  0  0  0  0  0  0  0  0
   10.2740   46.7100   52.5690 C   0  0  0  0  0  0  0  0  0  0  0  0
    9.2910   46.4830   51.6010 C   0  0  0  0  0  0  0  0  0  0  0  0
    7.9310   46.5020   51.9300 C   0  0  0  0  0  0  0  0  0  0  0  0
    6.9150   46.3060   51.0410 O   0  0  0  0  0  0  0  0  0  0  0  0
    6.5610   45.0600   50.4360 C   0  0  0  0  0  0  0  0  0  0  0  0
    5.7200   44.1460   51.3350 C   0  0  0  0  0  0  0  0  0  0  0  0
    5.2970   42.8750   50.6020 C   0  0  0  0  0  0  0  0  0  0  0  0
    6.4870   42.1660   49.9630 C   0  0  0  0  0  0  0  0  0  0  0  0
    7.2450   43.0860   49.0100 C   0  0  0  0  0  0  0  0  0  0  0  0
    7.7150   44.3610   49.7080 C   0  0  0  0  0  0  0  0  0  0  0  0
    5.5510   47.9340   52.2020 H   0  0  0  0  0  0  0  0  0  0  0  0
    3.8489   47.5171   54.5638 H   0  0  0  0  0  0  0  0  0  0  0  0
    3.5951   48.6924   53.2392 H   0  0  0  0  0  0  0  0  0  0  0  0
    3.4110   46.4764   50.6598 H   0  0  0  0  0  0  0  0  0  0  0  0
    1.2824   44.8245   50.7670 H   0  0  0  0  0  0  0  0  0  0  0  0
    8.2833   47.1820   55.2811 H   0  0  0  0  0  0  0  0  0  0  0  0
   10.6903   47.1427   54.6459 H   0  0  0  0  0  0  0  0  0  0  0  0
   11.3366   46.6895   52.2852 H   0  0  0  0  0  0  0  0  0  0  0  0
    9.5923   46.2858   50.5616 H   0  0  0  0  0  0  0  0  0  0  0  0
    5.8735   45.3347   49.6225 H   0  0  0  0  0  0  0  0  0  0  0  0
    6.3142   43.8683   52.2181 H   0  0  0  0  0  0  0  0  0  0  0  0
    4.8121   44.6926   51.6298 H   0  0  0  0  0  0  0  0  0  0  0  0
    4.8195   42.1921   51.3201 H   0  0  0  0  0  0  0  0  0  0  0  0
    4.5983   43.1589   49.8013 H   0  0  0  0  0  0  0  0  0  0  0  0
    7.1716   41.8322   50.7566 H   0  0  0  0  0  0  0  0  0  0  0  0
    6.1074   41.3103   49.3853 H   0  0  0  0  0  0  0  0  0  0  0  0
    8.1223   42.5496   48.6194 H   0  0  0  0  0  0  0  0  0  0  0  0
    6.5630   43.3728   48.1960 H   0  0  0  0  0  0  0  0  0  0  0  0
    8.4945   44.1016   50.4396 H   0  0  0  0  0  0  0  0  0  0  0  0
    8.1084   45.0480   48.9443 H   0  0  0  0  0  0  0  0  0  0  0  0
  1  2  2  0
  2  3  1  0
  3  4  1  0
  4  5  1  0
  5  6  2  0
  6  7  1  0
  7  8  2  0
  8  9  1  0
  2 10  1  0
 10 11  2  0
 11 12  1  0
 12 13  2  0
 13 14  1  0
 14 15  2  0
 15 16  1  0
 16 17  1  0
 17 18  1  0
 18 19  1  0
 19 20  1  0
 20 21  1  0
 21 22  1  0
  9  5  1  0
 15 10  1  0
 22 17  1  0
  3 23  1  0
  4 24  1  0
  4 25  1  0
  6 26  1  0
  7 27  1  0
 11 28  1  0
 12 29  1  0
 13 30  1  0
 14 31  1  0
 17 32  1  0
 18 33  1  0
 18 34  1  0
 19 35  1  0
 19 36  1  0
 20 37  1  0
 20 38  1  0
 21 39  1  0
 21 40  1  0
 22 41  1  0
 22 42  1  0
M  END
>  <meeko>  (2) 
{"is_sidechain": false}

>  <CID>  (2) 
Z1673780356

>  <pose_index>  (2) 
1

>  <docking_score>  (2) 
-9.033

>  <rmsd_to_best_selected>  (2) 
0.0

>  <MWT>  (2) 
300.3579999999996

>  <TPSA>  (2) 
64.36

>  <logP>  (2) 
3.3161000000000023

>  <HBD>  (2) 
1

>  <HBA>  (2) 
4

>  <SMILES>  (2) 
[H]c1noc(C([H])([H])N([H])C(=O)c2c([H])c([H])c([H])c([H])c2OC2([H])C([H])([H])C([H])([H])C([H])([H])C([H])([H])C2([H])[H])c1[H]

$$$$
Z1673780356_pose2
     RDKit          3D

 42 44  0  0  0  0  0  0  0  0999 V2000
    6.1095   46.1335   54.9223 O   0  0  0  0  0  0  0  0  0  0  0  0
    6.3261   46.7041   53.8577 C   0  0  0  0  0  0  0  0  0  0  0  0
    5.3130   47.2392   53.0993 N   0  0  0  0  0  0  0  0  0  0  0  0
    3.9708   47.3470   53.6153 C   0  0  0  0  0  0  0  0  0  0  0  0
    3.0608   46.6166   52.7101 C   0  0  0  0  0  0  0  0  0  0  0  0
    2.3999   45.4154   52.7820 C   0  0  0  0  0  0  0  0  0  0  0  0
    1.7205   45.3264   51.5551 C   0  0  0  0  0  0  0  0  0  0  0  0
    1.9453   46.3905   50.7781 N   0  0  0  0  0  0  0  0  0  0  0  0
    2.7910   47.2067   51.5115 O   0  0  0  0  0  0  0  0  0  0  0  0
    7.7275   46.8304   53.3288 C   0  0  0  0  0  0  0  0  0  0  0  0
    8.6880   47.2853   54.2539 C   0  0  0  0  0  0  0  0  0  0  0  0
   10.0222   47.4363   53.8816 C   0  0  0  0  0  0  0  0  0  0  0  0
   10.4066   47.1370   52.5823 C   0  0  0  0  0  0  0  0  0  0  0  0
    9.4628   46.6922   51.6522 C   0  0  0  0  0  0  0  0  0  0  0  0
    8.1173   46.5365   52.0013 C   0  0  0  0  0  0  0  0  0  0  0  0
    7.1360   46.1236   51.1471 O   0  0  0  0  0  0  0  0  0  0  0  0
    6.8297   44.7657   50.8180 C   0  0  0  0  0  0  0  0  0  0  0  0
    7.6786   44.1933   49.6781 C   0  0  0  0  0  0  0  0  0  0  0  0
    7.3700   42.7174   49.4359 C   0  0  0  0  0  0  0  0  0  0  0  0
    5.8742   42.4733   49.2577 C   0  0  0  0  0  0  0  0  0  0  0  0
    5.0743   42.9821   50.4550 C   0  0  0  0  0  0  0  0  0  0  0  0
    5.3297   44.4644   50.7179 C   0  0  0  0  0  0  0  0  0  0  0  0
    5.5832   47.8532   52.3383 H   0  0  0  0  0  0  0  0  0  0  0  0
    3.9241   46.9073   54.6225 H   0  0  0  0  0  0  0  0  0  0  0  0
    3.6740   48.4045   53.6754 H   0  0  0  0  0  0  0  0  0  0  0  0
    2.4018   44.6901   53.6090 H   0  0  0  0  0  0  0  0  0  0  0  0
    1.0790   44.4803   51.2679 H   0  0  0  0  0  0  0  0  0  0  0  0
    8.3808   47.5242   55.2827 H   0  0  0  0  0  0  0  0  0  0  0  0
   10.7649   47.7900   54.6119 H   0  0  0  0  0  0  0  0  0  0  0  0
   11.4590   47.2503   52.2829 H   0  0  0  0  0  0  0  0  0  0  0  0
    9.7842   46.4601   50.6261 H   0  0  0  0  0  0  0  0  0  0  0  0
    7.1492   44.1892   51.6986 H   0  0  0  0  0  0  0  0  0  0  0  0
    7.4685   44.7580   48.7578 H   0  0  0  0  0  0  0  0  0  0  0  0
    8.7384   44.2823   49.9593 H   0  0  0  0  0  0  0  0  0  0  0  0
    7.8952   42.3882   48.5271 H   0  0  0  0  0  0  0  0  0  0  0  0
    7.7069   42.1487   50.3151 H   0  0  0  0  0  0  0  0  0  0  0  0
    5.5327   42.9963   48.3522 H   0  0  0  0  0  0  0  0  0  0  0  0
    5.7109   41.3890   49.1709 H   0  0  0  0  0  0  0  0  0  0  0  0
    4.0025   42.8352   50.2558 H   0  0  0  0  0  0  0  0  0  0  0  0
    5.3918   42.4171   51.3439 H   0  0  0  0  0  0  0  0  0  0  0  0
    4.9009   45.0530   49.8934 H   0  0  0  0  0  0  0  0  0  0  0  0
    4.8587   44.7319   51.6753 H   0  0  0  0  0  0  0  0  0  0  0  0
  1  2  2  0
  2  3  1  0
  3  4  1  0
  4  5  1  0
  5  6  2  0
  6  7  1  0
  7  8  2  0
  8  9  1  0
  2 10  1  0
 10 11  2  0
 11 12  1  0
 12 13  2  0
 13 14  1  0
 14 15  2  0
 15 16  1  0
 16 17  1  0
 17 18  1  0
 18 19  1  0
 19 20  1  0
 20 21  1  0
 21 22  1  0
  9  5  1  0
 15 10  1  0
 22 17  1  0
  3 23  1  0
  4 24  1  0
  4 25  1  0
  6 26  1  0
  7 27  1  0
 11 28  1  0
 12 29  1  0
 13 30  1  0
 14 31  1  0
 17 32  1  0
 18 33  1  0
 18 34  1  0
 19 35  1  0
 19 36  1  0
 20 37  1  0
 20 38  1  0
 21 39  1  0
 21 40  1  0
 22 41  1  0
 22 42  1  0
M  END
>  <meeko>  (3) 
{"is_sidechain": false}

>  <CID>  (3) 
Z1673780356

>  <pose_index>  (3) 
2

>  <docking_score>  (3) 
-8.93

>  <rmsd_to_best_selected>  (3) 
1.2306349098333451

>  <MWT>  (3) 
300.3579999999996

>  <TPSA>  (3) 
64.36

>  <logP>  (3) 
3.3161000000000023

>  <HBD>  (3) 
1

>  <HBA>  (3) 
4

>  <SMILES>  (3) 
[H]c1noc(C([H])([H])N([H])C(=O)c2c([H])c([H])c([H])c([H])c2OC2([H])C([H])([H])C([H])([H])C([H])([H])C([H])([H])C2([H])[H])c1[H]

$$$$
Z1673780356_pose6
     RDKit          3D

 42 44  0  0  0  0  0  0  0  0999 V2000
    6.1472   48.6702   51.7616 O   0  0  0  0  0  0  0  0  0  0  0  0
    6.3495   47.8133   52.6170 C   0  0  0  0  0  0  0  0  0  0  0  0
    5.3819   47.4435   53.5198 N   0  0  0  0  0  0  0  0  0  0  0  0
    4.0167   47.8858   53.3755 C   0  0  0  0  0  0  0  0  0  0  0  0
    3.3241   46.9702   52.4470 C   0  0  0  0  0  0  0  0  0  0  0  0
    3.0687   46.9880   51.0975 C   0  0  0  0  0  0  0  0  0  0  0  0
    2.3408   45.8071   50.8735 C   0  0  0  0  0  0  0  0  0  0  0  0
    2.1545   45.1106   51.9982 N   0  0  0  0  0  0  0  0  0  0  0  0
    2.7794   45.8460   52.9922 O   0  0  0  0  0  0  0  0  0  0  0  0
    7.6865   47.1345   52.7175 C   0  0  0  0  0  0  0  0  0  0  0  0
    8.8081   47.9809   52.6237 C   0  0  0  0  0  0  0  0  0  0  0  0
   10.0990   47.4674   52.7091 C   0  0  0  0  0  0  0  0  0  0  0  0
   10.2819   46.1030   52.8868 C   0  0  0  0  0  0  0  0  0  0  0  0
    9.1775   45.2488   52.9730 C   0  0  0  0  0  0  0  0  0  0  0  0
    7.8715   45.7415   52.8860 C   0  0  0  0  0  0  0  0  0  0  0  0
    6.7463   44.9717   52.9462 O   0  0  0  0  0  0  0  0  0  0  0  0
    6.2715   44.1017   51.9151 C   0  0  0  0  0  0  0  0  0  0  0  0
    7.1363   42.8534   51.7055 C   0  0  0  0  0  0  0  0  0  0  0  0
    6.5289   41.9219   50.6596 C   0  0  0  0  0  0  0  0  0  0  0  0
    6.2067   42.6583   49.3626 C   0  0  0  0  0  0  0  0  0  0  0  0
    5.2732   43.8429   49.6049 C   0  0  0  0  0  0  0  0  0  0  0  0
    5.8541   44.8199   50.6260 C   0  0  0  0  0  0  0  0  0  0  0  0
    5.5582   46.6067   54.0643 H   0  0  0  0  0  0  0  0  0  0  0  0
    3.5160   47.8702   54.3548 H   0  0  0  0  0  0  0  0  0  0  0  0
    3.9925   48.9124   52.9811 H   0  0  0  0  0  0  0  0  0  0  0  0
    3.3655   47.7504   50.3622 H   0  0  0  0  0  0  0  0  0  0  0  0
    1.9679   45.4930   49.8875 H   0  0  0  0  0  0  0  0  0  0  0  0
    8.6621   49.0618   52.4811 H   0  0  0  0  0  0  0  0  0  0  0  0
   10.9679   48.1380   52.6363 H   0  0  0  0  0  0  0  0  0  0  0  0
   11.2995   45.6918   52.9603 H   0  0  0  0  0  0  0  0  0  0  0  0
    9.3393   44.1697   53.1117 H   0  0  0  0  0  0  0  0  0  0  0  0
    5.3233   43.7030   52.3048 H   0  0  0  0  0  0  0  0  0  0  0  0
    8.1368   43.1638   51.3699 H   0  0  0  0  0  0  0  0  0  0  0  0
    7.1950   42.3096   52.6599 H   0  0  0  0  0  0  0  0  0  0  0  0
    7.2448   41.1154   50.4426 H   0  0  0  0  0  0  0  0  0  0  0  0
    5.5896   41.5185   51.0657 H   0  0  0  0  0  0  0  0  0  0  0  0
    7.1436   43.0270   48.9194 H   0  0  0  0  0  0  0  0  0  0  0  0
    5.7011   41.9551   48.6845 H   0  0  0  0  0  0  0  0  0  0  0  0
    5.1153   44.3729   48.6540 H   0  0  0  0  0  0  0  0  0  0  0  0
    4.3234   43.4556   50.0024 H   0  0  0  0  0  0  0  0  0  0  0  0
    6.7358   45.3116   50.1890 H   0  0  0  0  0  0  0  0  0  0  0  0
    5.0789   45.5586   50.8774 H   0  0  0  0  0  0  0  0  0  0  0  0
  1  2  2  0
  2  3  1  0
  3  4  1  0
  4  5  1  0
  5  6  2  0
  6  7  1  0
  7  8  2  0
  8  9  1  0
  2 10  1  0
 10 11  2  0
 11 12  1  0
 12 13  2  0
 13 14  1  0
 14 15  2  0
 15 16  1  0
 16 17  1  0
 17 18  1  0
 18 19  1  0
 19 20  1  0
 20 21  1  0
 21 22  1  0
  9  5  1  0
 15 10  1  0
 22 17  1  0
  3 23  1  0
  4 24  1  0
  4 25  1  0
  6 26  1  0
  7 27  1  0
 11 28  1  0
 12 29  1  0
 13 30  1  0
 14 31  1  0
 17 32  1  0
 18 33  1  0
 18 34  1  0
 19 35  1  0
 19 36  1  0
 20 37  1  0
 20 38  1  0
 21 39  1  0
 21 40  1  0
 22 41  1  0
 22 42  1  0
M  END
>  <meeko>  (4) 
{"is_sidechain": false}

>  <CID>  (4) 
Z1673780356

>  <pose_index>  (4) 
6

>  <docking_score>  (4) 
-8.519

>  <rmsd_to_best_selected>  (4) 
1.8302590644113153

>  <MWT>  (4) 
300.3579999999996

>  <TPSA>  (4) 
64.36

>  <logP>  (4) 
3.3161000000000023

>  <HBD>  (4) 
1

>  <HBA>  (4) 
4

>  <SMILES>  (4) 
[H]c1noc(C([H])([H])N([H])C(=O)c2c([H])c([H])c([H])c([H])c2OC2([H])C([H])([H])C([H])([H])C([H])([H])C([H])([H])C2([H])[H])c1[H]

$$$$
Z1673780356_pose9
     RDKit          3D

 42 44  0  0  0  0  0  0  0  0999 V2000
    6.1274   48.0543   54.2199 O   0  0  0  0  0  0  0  0  0  0  0  0
    6.5678   47.5775   53.1776 C   0  0  0  0  0  0  0  0  0  0  0  0
    5.8326   47.5654   52.0161 N   0  0  0  0  0  0  0  0  0  0  0  0
    4.5972   48.3018   51.9059 C   0  0  0  0  0  0  0  0  0  0  0  0
    3.5064   47.3461   51.6276 C   0  0  0  0  0  0  0  0  0  0  0  0
    2.7640   47.0378   50.5138 C   0  0  0  0  0  0  0  0  0  0  0  0
    1.8783   46.0432   50.9601 C   0  0  0  0  0  0  0  0  0  0  0  0
    2.0534   45.7564   52.2528 N   0  0  0  0  0  0  0  0  0  0  0  0
    3.0871   46.5791   52.6729 O   0  0  0  0  0  0  0  0  0  0  0  0
    7.9402   46.9685   53.1344 C   0  0  0  0  0  0  0  0  0  0  0  0
    9.0127   47.8820   53.1525 C   0  0  0  0  0  0  0  0  0  0  0  0
   10.3312   47.4364   53.1227 C   0  0  0  0  0  0  0  0  0  0  0  0
   10.5908   46.0733   53.0736 C   0  0  0  0  0  0  0  0  0  0  0  0
    9.5366   45.1553   53.0475 C   0  0  0  0  0  0  0  0  0  0  0  0
    8.2040   45.5801   53.0719 C   0  0  0  0  0  0  0  0  0  0  0  0
    7.1234   44.7470   53.0342 O   0  0  0  0  0  0  0  0  0  0  0  0
    6.5416   44.1846   51.8553 C   0  0  0  0  0  0  0  0  0  0  0  0
    5.0697   43.7868   52.0155 C   0  0  0  0  0  0  0  0  0  0  0  0
    4.4812   43.2792   50.7013 C   0  0  0  0  0  0  0  0  0  0  0  0
    5.3409   42.1815   50.0811 C   0  0  0  0  0  0  0  0  0  0  0  0
    6.7768   42.6484   49.8600 C   0  0  0  0  0  0  0  0  0  0  0  0
    7.4191   43.1387   51.1559 C   0  0  0  0  0  0  0  0  0  0  0  0
    6.3267   47.3314   51.1624 H   0  0  0  0  0  0  0  0  0  0  0  0
    4.3953   48.8313   52.8487 H   0  0  0  0  0  0  0  0  0  0  0  0
    4.6690   49.0396   51.0932 H   0  0  0  0  0  0  0  0  0  0  0  0
    2.8444   47.4699   49.5054 H   0  0  0  0  0  0  0  0  0  0  0  0
    1.1277   45.5570   50.3196 H   0  0  0  0  0  0  0  0  0  0  0  0
    8.8055   48.9617   53.1907 H   0  0  0  0  0  0  0  0  0  0  0  0
   11.1608   48.1585   53.1379 H   0  0  0  0  0  0  0  0  0  0  0  0
   11.6304   45.7142   53.0551 H   0  0  0  0  0  0  0  0  0  0  0  0
    9.7593   44.0788   53.0070 H   0  0  0  0  0  0  0  0  0  0  0  0
    6.5130   45.0170   51.1368 H   0  0  0  0  0  0  0  0  0  0  0  0
    4.9947   42.9914   52.7716 H   0  0  0  0  0  0  0  0  0  0  0  0
    4.5034   44.6771   52.3262 H   0  0  0  0  0  0  0  0  0  0  0  0
    3.4753   42.8777   50.8934 H   0  0  0  0  0  0  0  0  0  0  0  0
    4.4428   44.1225   49.9960 H   0  0  0  0  0  0  0  0  0  0  0  0
    5.3484   41.3112   50.7539 H   0  0  0  0  0  0  0  0  0  0  0  0
    4.9105   41.9191   49.1034 H   0  0  0  0  0  0  0  0  0  0  0  0
    7.3676   41.8088   49.4651 H   0  0  0  0  0  0  0  0  0  0  0  0
    6.7581   43.4873   49.1486 H   0  0  0  0  0  0  0  0  0  0  0  0
    7.5615   42.2820   51.8310 H   0  0  0  0  0  0  0  0  0  0  0  0
    8.3837   43.6059   50.9087 H   0  0  0  0  0  0  0  0  0  0  0  0
  1  2  2  0
  2  3  1  0
  3  4  1  0
  4  5  1  0
  5  6  2  0
  6  7  1  0
  7  8  2  0
  8  9  1  0
  2 10  1  0
 10 11  2  0
 11 12  1  0
 12 13  2  0
 13 14  1  0
 14 15  2  0
 15 16  1  0
 16 17  1  0
 17 18  1  0
 18 19  1  0
 19 20  1  0
 20 21  1  0
 21 22  1  0
  9  5  1  0
 15 10  1  0
 22 17  1  0
  3 23  1  0
  4 24  1  0
  4 25  1  0
  6 26  1  0
  7 27  1  0
 11 28  1  0
 12 29  1  0
 13 30  1  0
 14 31  1  0
 17 32  1  0
 18 33  1  0
 18 34  1  0
 19 35  1  0
 19 36  1  0
 20 37  1  0
 20 38  1  0
 21 39  1  0
 21 40  1  0
 22 41  1  0
 22 42  1  0
M  END
>  <meeko>  (5) 
{"is_sidechain": false}

>  <CID>  (5) 
Z1673780356

>  <pose_index>  (5) 
9

>  <docking_score>  (5) 
-8.217

>  <rmsd_to_best_selected>  (5) 
1.194358973232307

>  <MWT>  (5) 
300.3579999999996

>  <TPSA>  (5) 
64.36

>  <logP>  (5) 
3.3161000000000023

>  <HBD>  (5) 
1

>  <HBA>  (5) 
4

>  <SMILES>  (5) 
[H]c1noc(C([H])([H])N([H])C(=O)c2c([H])c([H])c([H])c([H])c2OC2([H])C([H])([H])C([H])([H])C([H])([H])C([H])([H])C2([H])[H])c1[H]

$$$$
