Z2613622720_pose2
     RDKit          3D

 41 44  0  0  0  0  0  0  0  0999 V2000
    0.8641   45.6155   56.8422 F   0  0  0  0  0  0  0  0  0  0  0  0
    1.2861   45.9184   55.5857 C   0  0  0  0  0  0  0  0  0  0  0  0
    1.4481   44.6402   54.7727 C   0  0  2  0  0  0  0  0  0  0  0  0
    2.7107   44.7243   53.8909 C   0  0  0  0  0  0  0  0  0  0  0  0
    2.7963   43.5449   53.0111 N   0  0  0  0  0  0  0  0  0  0  0  0
    3.9567   43.5010   52.2252 C   0  0  0  0  0  0  0  0  0  0  0  0
    4.6506   44.6537   52.0697 N   0  0  0  0  0  0  0  0  0  0  0  0
    5.8012   44.6826   51.3657 C   0  0  0  0  0  0  0  0  0  0  0  0
    6.4765   45.9034   51.2282 N   0  0  0  0  0  0  0  0  0  0  0  0
    7.6523   46.3066   51.8980 C   0  0  0  0  0  0  0  0  0  0  0  0
    7.6323   46.9456   53.1433 C   0  0  0  0  0  0  0  0  0  0  0  0
    8.8199   47.3672   53.7464 C   0  0  0  0  0  0  0  0  0  0  0  0
   10.0381   47.1735   53.0996 C   0  0  0  0  0  0  0  0  0  0  0  0
   10.0688   46.5697   51.8456 C   0  0  0  0  0  0  0  0  0  0  0  0
    8.8801   46.1505   51.2450 C   0  0  0  0  0  0  0  0  0  0  0  0
    6.1939   43.4997   50.7871 C   0  0  0  0  0  0  0  0  0  0  0  0
    7.2281   43.1159   49.9793 N   0  0  0  0  0  0  0  0  0  0  0  0
    7.0777   41.7805   49.7294 C   0  0  0  0  0  0  0  0  0  0  0  0
    6.0078   41.2925   50.3196 N   0  0  0  0  0  0  0  0  0  0  0  0
    5.4476   42.3593   50.9745 C   0  0  0  0  0  0  0  0  0  0  0  0
    4.3246   42.3252   51.7037 N   0  0  0  0  0  0  0  0  0  0  0  0
    1.5616   43.2637   52.2612 C   0  0  0  0  0  0  0  0  0  0  0  0
    0.3611   43.2377   53.2180 C   0  0  0  0  0  0  0  0  0  0  0  0
    0.2613   44.4553   53.9738 O   0  0  0  0  0  0  0  0  0  0  0  0
    0.5451   46.5693   55.0987 H   0  0  0  0  0  0  0  0  0  0  0  0
    2.2546   46.4369   55.6433 H   0  0  0  0  0  0  0  0  0  0  0  0
    1.5727   43.7757   55.4413 H   0  0  0  0  0  0  0  0  0  0  0  0
    2.6638   45.6345   53.2750 H   0  0  0  0  0  0  0  0  0  0  0  0
    3.5994   44.7545   54.5384 H   0  0  0  0  0  0  0  0  0  0  0  0
    5.7659   46.6331   51.2825 H   0  0  0  0  0  0  0  0  0  0  0  0
    6.6723   47.1175   53.6520 H   0  0  0  0  0  0  0  0  0  0  0  0
    8.7928   47.8527   54.7331 H   0  0  0  0  0  0  0  0  0  0  0  0
   10.9740   47.4970   53.5786 H   0  0  0  0  0  0  0  0  0  0  0  0
   11.0285   46.4229   51.3285 H   0  0  0  0  0  0  0  0  0  0  0  0
    8.9090   45.6917   50.2457 H   0  0  0  0  0  0  0  0  0  0  0  0
    7.9652   43.7178   49.6386 H   0  0  0  0  0  0  0  0  0  0  0  0
    7.7666   41.1866   49.1108 H   0  0  0  0  0  0  0  0  0  0  0  0
    1.4080   44.0476   51.5050 H   0  0  0  0  0  0  0  0  0  0  0  0
    1.6528   42.2840   51.7693 H   0  0  0  0  0  0  0  0  0  0  0  0
   -0.5600   43.1049   52.6317 H   0  0  0  0  0  0  0  0  0  0  0  0
    0.5011   42.4052   53.9234 H   0  0  0  0  0  0  0  0  0  0  0  0
  1  2  1  0
  2  3  1  0
  3  4  1  0
  4  5  1  0
  5  6  1  0
  6  7  2  0
  7  8  1  0
  8  9  1  0
  9 10  1  0
 10 11  2  0
 11 12  1  0
 12 13  2  0
 13 14  1  0
 14 15  2  0
  8 16  2  0
 16 17  1  0
 17 18  1  0
 18 19  2  0
 19 20  1  0
 20 21  2  0
  5 22  1  0
 22 23  1  0
 23 24  1  0
 24  3  1  0
 21  6  1  0
 15 10  1  0
 20 16  1  0
  2 25  1  0
  2 26  1  0
  3 27  1  1
  4 28  1  0
  4 29  1  0
  9 30  1  0
 11 31  1  0
 12 32  1  0
 13 33  1  0
 14 34  1  0
 15 35  1  0
 17 36  1  0
 18 37  1  0
 22 38  1  0
 22 39  1  0
 23 40  1  0
 23 41  1  0
M  END
>  <meeko>  (1) 
{"is_sidechain": false}

>  <CID>  (1) 
Z2613622720

>  <pose_index>  (1) 
2

>  <docking_score>  (1) 
-8.947

>  <rmsd_to_best_selected>  (1) 
0.0

>  <MWT>  (1) 
328.3509999999998

>  <TPSA>  (1) 
78.96000000000001

>  <logP>  (1) 
2.2712000000000003

>  <HBD>  (1) 
2

>  <HBA>  (1) 
6

>  <SMILES>  (1) 
[H]c1c([H])c([H])c(N([H])c2nc(N3C([H])([H])C([H])([H])OC([H])(C([H])([H])F)C3([H])[H])nc3nc([H])n([H])c23)c([H])c1[H]

$$$$
Z2613622720_pose3
     RDKit          3D

 41 44  0  0  0  0  0  0  0  0999 V2000
    3.5913   46.9732   55.1163 F   0  0  0  0  0  0  0  0  0  0  0  0
    2.3256   46.5052   55.2774 C   0  0  0  0  0  0  0  0  0  0  0  0
    2.1902   45.1431   54.6084 C   0  0  2  0  0  0  0  0  0  0  0  0
    3.3812   44.8936   53.6594 C   0  0  0  0  0  0  0  0  0  0  0  0
    3.1838   43.6355   52.9167 N   0  0  0  0  0  0  0  0  0  0  0  0
    4.2569   43.2903   52.0821 C   0  0  0  0  0  0  0  0  0  0  0  0
    5.3742   44.0530   52.1526 N   0  0  0  0  0  0  0  0  0  0  0  0
    6.4654   43.7572   51.4148 C   0  0  0  0  0  0  0  0  0  0  0  0
    7.5917   44.5843   51.5178 N   0  0  0  0  0  0  0  0  0  0  0  0
    7.7265   45.7434   52.3128 C   0  0  0  0  0  0  0  0  0  0  0  0
    7.8708   45.6952   53.7048 C   0  0  0  0  0  0  0  0  0  0  0  0
    7.9559   46.8714   54.4538 C   0  0  0  0  0  0  0  0  0  0  0  0
    7.8738   48.1100   53.8206 C   0  0  0  0  0  0  0  0  0  0  0  0
    7.6968   48.1727   52.4411 C   0  0  0  0  0  0  0  0  0  0  0  0
    7.6125   46.9942   51.6945 C   0  0  0  0  0  0  0  0  0  0  0  0
    6.3574   42.6799   50.5676 C   0  0  0  0  0  0  0  0  0  0  0  0
    7.1749   42.0934   49.6432 N   0  0  0  0  0  0  0  0  0  0  0  0
    6.4942   41.0340   49.1102 C   0  0  0  0  0  0  0  0  0  0  0  0
    5.2918   40.9165   49.6310 N   0  0  0  0  0  0  0  0  0  0  0  0
    5.1963   41.9429   50.5347 C   0  0  0  0  0  0  0  0  0  0  0  0
    4.1274   42.2171   51.2943 N   0  0  0  0  0  0  0  0  0  0  0  0
    1.8680   43.5201   52.2681 C   0  0  0  0  0  0  0  0  0  0  0  0
    0.7553   43.8218   53.2810 C   0  0  0  0  0  0  0  0  0  0  0  0
    0.9358   45.1079   53.8965 O   0  0  0  0  0  0  0  0  0  0  0  0
    2.1059   46.4084   56.3509 H   0  0  0  0  0  0  0  0  0  0  0  0
    1.6168   47.2086   54.8161 H   0  0  0  0  0  0  0  0  0  0  0  0
    2.2001   44.3439   55.3641 H   0  0  0  0  0  0  0  0  0  0  0  0
    3.4594   45.7280   52.9469 H   0  0  0  0  0  0  0  0  0  0  0  0
    4.3044   44.8196   54.2529 H   0  0  0  0  0  0  0  0  0  0  0  0
    7.9032   44.7670   50.5644 H   0  0  0  0  0  0  0  0  0  0  0  0
    7.9176   44.7212   54.2138 H   0  0  0  0  0  0  0  0  0  0  0  0
    8.0879   46.8196   55.5446 H   0  0  0  0  0  0  0  0  0  0  0  0
    7.9486   49.0361   54.4095 H   0  0  0  0  0  0  0  0  0  0  0  0
    7.6234   49.1488   51.9393 H   0  0  0  0  0  0  0  0  0  0  0  0
    7.4546   47.0502   50.6073 H   0  0  0  0  0  0  0  0  0  0  0  0
    8.1107   42.3930   49.4082 H   0  0  0  0  0  0  0  0  0  0  0  0
    6.9019   40.3624   48.3403 H   0  0  0  0  0  0  0  0  0  0  0  0
    1.8078   44.2374   51.4363 H   0  0  0  0  0  0  0  0  0  0  0  0
    1.7417   42.4959   51.8873 H   0  0  0  0  0  0  0  0  0  0  0  0
   -0.2141   43.8074   52.7614 H   0  0  0  0  0  0  0  0  0  0  0  0
    0.7897   43.0551   54.0690 H   0  0  0  0  0  0  0  0  0  0  0  0
  1  2  1  0
  2  3  1  0
  3  4  1  0
  4  5  1  0
  5  6  1  0
  6  7  2  0
  7  8  1  0
  8  9  1  0
  9 10  1  0
 10 11  2  0
 11 12  1  0
 12 13  2  0
 13 14  1  0
 14 15  2  0
  8 16  2  0
 16 17  1  0
 17 18  1  0
 18 19  2  0
 19 20  1  0
 20 21  2  0
  5 22  1  0
 22 23  1  0
 23 24  1  0
 24  3  1  0
 21  6  1  0
 15 10  1  0
 20 16  1  0
  2 25  1  0
  2 26  1  0
  3 27  1  1
  4 28  1  0
  4 29  1  0
  9 30  1  0
 11 31  1  0
 12 32  1  0
 13 33  1  0
 14 34  1  0
 15 35  1  0
 17 36  1  0
 18 37  1  0
 22 38  1  0
 22 39  1  0
 23 40  1  0
 23 41  1  0
M  END
>  <meeko>  (2) 
{"is_sidechain": false}

>  <CID>  (2) 
Z2613622720

>  <pose_index>  (2) 
3

>  <docking_score>  (2) 
-8.947

>  <rmsd_to_best_selected>  (2) 
1.6520556968727267

>  <MWT>  (2) 
328.3509999999998

>  <TPSA>  (2) 
78.96000000000001

>  <logP>  (2) 
2.2712000000000003

>  <HBD>  (2) 
2

>  <HBA>  (2) 
6

>  <SMILES>  (2) 
[H]c1c([H])c([H])c(N([H])c2nc(N3C([H])([H])C([H])([H])OC([H])(C([H])([H])F)C3([H])[H])nc3nc([H])n([H])c23)c([H])c1[H]

$$$$
Z2613622720_pose6
     RDKit          3D

 41 44  0  0  0  0  0  0  0  0999 V2000
    3.3641   46.5699   55.7267 F   0  0  0  0  0  0  0  0  0  0  0  0
    2.0471   46.3063   55.5217 C   0  0  0  0  0  0  0  0  0  0  0  0
    1.8967   45.0630   54.6553 C   0  0  2  0  0  0  0  0  0  0  0  0
    3.2320   44.7354   53.9552 C   0  0  0  0  0  0  0  0  0  0  0  0
    3.0523   43.6107   53.0185 N   0  0  0  0  0  0  0  0  0  0  0  0
    4.2362   43.1948   52.3920 C   0  0  0  0  0  0  0  0  0  0  0  0
    5.3529   43.9262   52.6167 N   0  0  0  0  0  0  0  0  0  0  0  0
    6.5397   43.5649   52.0863 C   0  0  0  0  0  0  0  0  0  0  0  0
    7.6634   44.3623   52.3416 N   0  0  0  0  0  0  0  0  0  0  0  0
    7.7371   45.7714   52.2893 C   0  0  0  0  0  0  0  0  0  0  0  0
    8.9337   46.4600   52.0566 C   0  0  0  0  0  0  0  0  0  0  0  0
    8.9650   47.8562   52.0589 C   0  0  0  0  0  0  0  0  0  0  0  0
    7.8022   48.5802   52.3162 C   0  0  0  0  0  0  0  0  0  0  0  0
    6.6126   47.9084   52.5835 C   0  0  0  0  0  0  0  0  0  0  0  0
    6.5849   46.5112   52.5808 C   0  0  0  0  0  0  0  0  0  0  0  0
    6.5347   42.4524   51.2780 C   0  0  0  0  0  0  0  0  0  0  0  0
    7.4725   41.7976   50.5293 N   0  0  0  0  0  0  0  0  0  0  0  0
    6.8517   40.7351   49.9354 C   0  0  0  0  0  0  0  0  0  0  0  0
    5.5756   40.6785   50.2506 N   0  0  0  0  0  0  0  0  0  0  0  0
    5.3688   41.7494   51.0822 C   0  0  0  0  0  0  0  0  0  0  0  0
    4.1992   42.0903   51.6386 N   0  0  0  0  0  0  0  0  0  0  0  0
    1.9176   43.7717   52.0954 C   0  0  0  0  0  0  0  0  0  0  0  0
    0.6495   44.1328   52.8814 C   0  0  0  0  0  0  0  0  0  0  0  0
    0.8461   45.3002   53.6954 O   0  0  0  0  0  0  0  0  0  0  0  0
    1.5537   46.1378   56.4903 H   0  0  0  0  0  0  0  0  0  0  0  0
    1.5812   47.1622   55.0114 H   0  0  0  0  0  0  0  0  0  0  0  0
    1.6302   44.1952   55.2766 H   0  0  0  0  0  0  0  0  0  0  0  0
    3.5776   45.6196   53.3995 H   0  0  0  0  0  0  0  0  0  0  0  0
    3.9767   44.4550   54.7147 H   0  0  0  0  0  0  0  0  0  0  0  0
    8.4366   43.9462   51.8240 H   0  0  0  0  0  0  0  0  0  0  0  0
    9.8591   45.8953   51.8699 H   0  0  0  0  0  0  0  0  0  0  0  0
    9.9083   48.3851   51.8576 H   0  0  0  0  0  0  0  0  0  0  0  0
    7.8244   49.6800   52.3080 H   0  0  0  0  0  0  0  0  0  0  0  0
    5.6952   48.4767   52.7965 H   0  0  0  0  0  0  0  0  0  0  0  0
    5.6460   45.9861   52.8107 H   0  0  0  0  0  0  0  0  0  0  0  0
    8.4450   42.0585   50.4433 H   0  0  0  0  0  0  0  0  0  0  0  0
    7.3569   40.0152   49.2748 H   0  0  0  0  0  0  0  0  0  0  0  0
    2.1426   44.5746   51.3779 H   0  0  0  0  0  0  0  0  0  0  0  0
    1.7525   42.8266   51.5574 H   0  0  0  0  0  0  0  0  0  0  0  0
   -0.1677   44.3266   52.1710 H   0  0  0  0  0  0  0  0  0  0  0  0
    0.4032   43.2894   53.5432 H   0  0  0  0  0  0  0  0  0  0  0  0
  1  2  1  0
  2  3  1  0
  3  4  1  0
  4  5  1  0
  5  6  1  0
  6  7  2  0
  7  8  1  0
  8  9  1  0
  9 10  1  0
 10 11  2  0
 11 12  1  0
 12 13  2  0
 13 14  1  0
 14 15  2  0
  8 16  2  0
 16 17  1  0
 17 18  1  0
 18 19  2  0
 19 20  1  0
 20 21  2  0
  5 22  1  0
 22 23  1  0
 23 24  1  0
 24  3  1  0
 21  6  1  0
 15 10  1  0
 20 16  1  0
  2 25  1  0
  2 26  1  0
  3 27  1  1
  4 28  1  0
  4 29  1  0
  9 30  1  0
 11 31  1  0
 12 32  1  0
 13 33  1  0
 14 34  1  0
 15 35  1  0
 17 36  1  0
 18 37  1  0
 22 38  1  0
 22 39  1  0
 23 40  1  0
 23 41  1  0
M  END
>  <meeko>  (3) 
{"is_sidechain": false}

>  <CID>  (3) 
Z2613622720

>  <pose_index>  (3) 
6

>  <docking_score>  (3) 
-8.483

>  <rmsd_to_best_selected>  (3) 
1.602027911447068

>  <MWT>  (3) 
328.3509999999998

>  <TPSA>  (3) 
78.96000000000001

>  <logP>  (3) 
2.2712000000000003

>  <HBD>  (3) 
2

>  <HBA>  (3) 
6

>  <SMILES>  (3) 
[H]c1c([H])c([H])c(N([H])c2nc(N3C([H])([H])C([H])([H])OC([H])(C([H])([H])F)C3([H])[H])nc3nc([H])n([H])c23)c([H])c1[H]

$$$$
Z2613622720_pose8
     RDKit          3D

 41 44  0  0  0  0  0  0  0  0999 V2000
    1.4461   47.1400   54.4799 F   0  0  0  0  0  0  0  0  0  0  0  0
    1.3191   46.1536   55.4062 C   0  0  0  0  0  0  0  0  0  0  0  0
    1.4852   44.7945   54.7385 C   0  0  2  0  0  0  0  0  0  0  0  0
    2.8350   44.7260   53.9941 C   0  0  0  0  0  0  0  0  0  0  0  0
    2.9378   43.4624   53.2425 N   0  0  0  0  0  0  0  0  0  0  0  0
    4.1685   43.2822   52.5945 C   0  0  0  0  0  0  0  0  0  0  0  0
    5.2216   44.0112   53.0351 N   0  0  0  0  0  0  0  0  0  0  0  0
    6.4471   43.8612   52.4930 C   0  0  0  0  0  0  0  0  0  0  0  0
    7.5005   44.6471   52.9789 N   0  0  0  0  0  0  0  0  0  0  0  0
    7.8835   45.9300   52.5292 C   0  0  0  0  0  0  0  0  0  0  0  0
    7.0207   47.0324   52.5625 C   0  0  0  0  0  0  0  0  0  0  0  0
    7.4291   48.2713   52.0635 C   0  0  0  0  0  0  0  0  0  0  0  0
    8.6979   48.4165   51.5056 C   0  0  0  0  0  0  0  0  0  0  0  0
    9.5530   47.3200   51.4363 C   0  0  0  0  0  0  0  0  0  0  0  0
    9.1409   46.0816   51.9347 C   0  0  0  0  0  0  0  0  0  0  0  0
    6.5499   42.9703   51.4508 C   0  0  0  0  0  0  0  0  0  0  0  0
    7.5567   42.5712   50.6173 N   0  0  0  0  0  0  0  0  0  0  0  0
    7.0352   41.6383   49.7641 C   0  0  0  0  0  0  0  0  0  0  0  0
    5.7583   41.4272   49.9962 N   0  0  0  0  0  0  0  0  0  0  0  0
    5.4457   42.2582   51.0410 C   0  0  0  0  0  0  0  0  0  0  0  0
    4.2378   42.3835   51.6047 N   0  0  0  0  0  0  0  0  0  0  0  0
    1.7722   43.1708   52.3935 C   0  0  0  0  0  0  0  0  0  0  0  0
    0.4807   43.3016   53.2124 C   0  0  0  0  0  0  0  0  0  0  0  0
    0.3781   44.5916   53.8354 O   0  0  0  0  0  0  0  0  0  0  0  0
    2.0915   46.2773   56.1797 H   0  0  0  0  0  0  0  0  0  0  0  0
    0.3216   46.2131   55.8659 H   0  0  0  0  0  0  0  0  0  0  0  0
    1.4867   43.9960   55.4950 H   0  0  0  0  0  0  0  0  0  0  0  0
    2.9077   45.5718   53.2945 H   0  0  0  0  0  0  0  0  0  0  0  0
    3.6528   44.7747   54.7281 H   0  0  0  0  0  0  0  0  0  0  0  0
    8.3127   44.0347   53.0418 H   0  0  0  0  0  0  0  0  0  0  0  0
    6.0115   46.9216   52.9857 H   0  0  0  0  0  0  0  0  0  0  0  0
    6.7481   49.1339   52.1109 H   0  0  0  0  0  0  0  0  0  0  0  0
    9.0229   49.3946   51.1212 H   0  0  0  0  0  0  0  0  0  0  0  0
   10.5522   47.4286   50.9893 H   0  0  0  0  0  0  0  0  0  0  0  0
    9.8137   45.2146   51.8589 H   0  0  0  0  0  0  0  0  0  0  0  0
    8.5089   42.9069   50.6396 H   0  0  0  0  0  0  0  0  0  0  0  0
    7.6130   41.1273   48.9799 H   0  0  0  0  0  0  0  0  0  0  0  0
    1.7454   43.8820   51.5548 H   0  0  0  0  0  0  0  0  0  0  0  0
    1.8535   42.1435   52.0088 H   0  0  0  0  0  0  0  0  0  0  0  0
   -0.3815   43.1580   52.5446 H   0  0  0  0  0  0  0  0  0  0  0  0
    0.4961   42.5376   54.0036 H   0  0  0  0  0  0  0  0  0  0  0  0
  1  2  1  0
  2  3  1  0
  3  4  1  0
  4  5  1  0
  5  6  1  0
  6  7  2  0
  7  8  1  0
  8  9  1  0
  9 10  1  0
 10 11  2  0
 11 12  1  0
 12 13  2  0
 13 14  1  0
 14 15  2  0
  8 16  2  0
 16 17  1  0
 17 18  1  0
 18 19  2  0
 19 20  1  0
 20 21  2  0
  5 22  1  0
 22 23  1  0
 23 24  1  0
 24  3  1  0
 21  6  1  0
 15 10  1  0
 20 16  1  0
  2 25  1  0
  2 26  1  0
  3 27  1  1
  4 28  1  0
  4 29  1  0
  9 30  1  0
 11 31  1  0
 12 32  1  0
 13 33  1  0
 14 34  1  0
 15 35  1  0
 17 36  1  0
 18 37  1  0
 22 38  1  0
 22 39  1  0
 23 40  1  0
 23 41  1  0
M  END
>  <meeko>  (4) 
{"is_sidechain": false}

>  <CID>  (4) 
Z2613622720

>  <pose_index>  (4) 
8

>  <docking_score>  (4) 
-8.089

>  <rmsd_to_best_selected>  (4) 
1.3169518653274686

>  <MWT>  (4) 
328.3509999999998

>  <TPSA>  (4) 
78.96000000000001

>  <logP>  (4) 
2.2712000000000003

>  <HBD>  (4) 
2

>  <HBA>  (4) 
6

>  <SMILES>  (4) 
[H]c1c([H])c([H])c(N([H])c2nc(N3C([H])([H])C([H])([H])OC([H])(C([H])([H])F)C3([H])[H])nc3nc([H])n([H])c23)c([H])c1[H]

$$$$
Z2613622720_pose9
     RDKit          3D

 41 44  0  0  0  0  0  0  0  0999 V2000
    0.6092   46.8810   55.7448 F   0  0  0  0  0  0  0  0  0  0  0  0
    0.9856   46.5642   54.4780 C   0  0  0  0  0  0  0  0  0  0  0  0
    1.4498   45.1139   54.4236 C   0  0  2  0  0  0  0  0  0  0  0  0
    2.6847   44.9822   53.5106 C   0  0  0  0  0  0  0  0  0  0  0  0
    3.0537   43.5630   53.3554 N   0  0  0  0  0  0  0  0  0  0  0  0
    4.2162   43.3544   52.5992 C   0  0  0  0  0  0  0  0  0  0  0  0
    5.3503   43.9702   53.0098 N   0  0  0  0  0  0  0  0  0  0  0  0
    6.5183   43.7820   52.3613 C   0  0  0  0  0  0  0  0  0  0  0  0
    7.6596   44.4512   52.8221 N   0  0  0  0  0  0  0  0  0  0  0  0
    8.0467   45.7767   52.5267 C   0  0  0  0  0  0  0  0  0  0  0  0
    9.1540   46.0821   51.7256 C   0  0  0  0  0  0  0  0  0  0  0  0
    9.5245   47.4102   51.4985 C   0  0  0  0  0  0  0  0  0  0  0  0
    8.8054   48.4466   52.0893 C   0  0  0  0  0  0  0  0  0  0  0  0
    7.7231   48.1554   52.9164 C   0  0  0  0  0  0  0  0  0  0  0  0
    7.3555   46.8268   53.1413 C   0  0  0  0  0  0  0  0  0  0  0  0
    6.4761   42.9767   51.2484 C   0  0  0  0  0  0  0  0  0  0  0  0
    7.3862   42.5803   50.3080 N   0  0  0  0  0  0  0  0  0  0  0  0
    6.7346   41.7614   49.4289 C   0  0  0  0  0  0  0  0  0  0  0  0
    5.4656   41.6196   49.7451 N   0  0  0  0  0  0  0  0  0  0  0  0
    5.2955   42.3791   50.8737 C   0  0  0  0  0  0  0  0  0  0  0  0
    4.1453   42.5395   51.5399 N   0  0  0  0  0  0  0  0  0  0  0  0
    1.9329   42.6883   52.9743 C   0  0  0  0  0  0  0  0  0  0  0  0
    0.7428   42.9202   53.9157 C   0  0  0  0  0  0  0  0  0  0  0  0
    0.3548   44.3039   53.9460 O   0  0  0  0  0  0  0  0  0  0  0  0
    0.1311   46.6997   53.7987 H   0  0  0  0  0  0  0  0  0  0  0  0
    1.8123   47.2214   54.1702 H   0  0  0  0  0  0  0  0  0  0  0  0
    1.7456   44.7694   55.4255 H   0  0  0  0  0  0  0  0  0  0  0  0
    2.4535   45.4077   52.5229 H   0  0  0  0  0  0  0  0  0  0  0  0
    3.5269   45.5245   53.9652 H   0  0  0  0  0  0  0  0  0  0  0  0
    8.4430   43.8126   52.6857 H   0  0  0  0  0  0  0  0  0  0  0  0
    9.7379   45.2685   51.2707 H   0  0  0  0  0  0  0  0  0  0  0  0
   10.3851   47.6375   50.8522 H   0  0  0  0  0  0  0  0  0  0  0  0
    9.0915   49.4923   51.9031 H   0  0  0  0  0  0  0  0  0  0  0  0
    7.1584   48.9709   53.3919 H   0  0  0  0  0  0  0  0  0  0  0  0
    6.5116   46.6030   53.8104 H   0  0  0  0  0  0  0  0  0  0  0  0
    8.3603   42.8474   50.2805 H   0  0  0  0  0  0  0  0  0  0  0  0
    7.2127   41.2799   48.5631 H   0  0  0  0  0  0  0  0  0  0  0  0
    1.6296   42.9139   51.9413 H   0  0  0  0  0  0  0  0  0  0  0  0
    2.2527   41.6385   53.0482 H   0  0  0  0  0  0  0  0  0  0  0  0
   -0.1097   42.3178   53.5687 H   0  0  0  0  0  0  0  0  0  0  0  0
    1.0446   42.6248   54.9314 H   0  0  0  0  0  0  0  0  0  0  0  0
  1  2  1  0
  2  3  1  0
  3  4  1  0
  4  5  1  0
  5  6  1  0
  6  7  2  0
  7  8  1  0
  8  9  1  0
  9 10  1  0
 10 11  2  0
 11 12  1  0
 12 13  2  0
 13 14  1  0
 14 15  2  0
  8 16  2  0
 16 17  1  0
 17 18  1  0
 18 19  2  0
 19 20  1  0
 20 21  2  0
  5 22  1  0
 22 23  1  0
 23 24  1  0
 24  3  1  0
 21  6  1  0
 15 10  1  0
 20 16  1  0
  2 25  1  0
  2 26  1  0
  3 27  1  1
  4 28  1  0
  4 29  1  0
  9 30  1  0
 11 31  1  0
 12 32  1  0
 13 33  1  0
 14 34  1  0
 15 35  1  0
 17 36  1  0
 18 37  1  0
 22 38  1  0
 22 39  1  0
 23 40  1  0
 23 41  1  0
M  END
>  <meeko>  (5) 
{"is_sidechain": false}

>  <CID>  (5) 
Z2613622720

>  <pose_index>  (5) 
9

>  <docking_score>  (5) 
-7.863

>  <rmsd_to_best_selected>  (5) 
1.234799108023074

>  <MWT>  (5) 
328.3509999999998

>  <TPSA>  (5) 
78.96000000000001

>  <logP>  (5) 
2.2712000000000003

>  <HBD>  (5) 
2

>  <HBA>  (5) 
6

>  <SMILES>  (5) 
[H]c1c([H])c([H])c(N([H])c2nc(N3C([H])([H])C([H])([H])OC([H])(C([H])([H])F)C3([H])[H])nc3nc([H])n([H])c23)c([H])c1[H]

$$$$
Z2613622720_pose10
     RDKit          3D

 41 44  0  0  0  0  0  0  0  0999 V2000
   -0.8470   46.1037   54.3133 F   0  0  0  0  0  0  0  0  0  0  0  0
    0.4734   46.2357   54.6120 C   0  0  0  0  0  0  0  0  0  0  0  0
    1.1527   44.8737   54.5639 C   0  0  2  0  0  0  0  0  0  0  0  0
    2.3714   44.9180   53.6200 C   0  0  0  0  0  0  0  0  0  0  0  0
    2.9496   43.5694   53.4734 N   0  0  0  0  0  0  0  0  0  0  0  0
    4.1121   43.5295   52.6882 C   0  0  0  0  0  0  0  0  0  0  0  0
    5.2318   44.0952   53.1983 N   0  0  0  0  0  0  0  0  0  0  0  0
    6.3994   44.0571   52.5243 C   0  0  0  0  0  0  0  0  0  0  0  0
    7.5260   44.6659   53.0929 N   0  0  0  0  0  0  0  0  0  0  0  0
    8.1863   45.8276   52.6361 C   0  0  0  0  0  0  0  0  0  0  0  0
    7.5510   47.0720   52.5399 C   0  0  0  0  0  0  0  0  0  0  0  0
    8.2335   48.1833   52.0394 C   0  0  0  0  0  0  0  0  0  0  0  0
    9.5526   48.0578   51.6086 C   0  0  0  0  0  0  0  0  0  0  0  0
   10.1854   46.8188   51.6674 C   0  0  0  0  0  0  0  0  0  0  0  0
    9.5007   45.7092   52.1677 C   0  0  0  0  0  0  0  0  0  0  0  0
    6.3724   43.4580   51.2868 C   0  0  0  0  0  0  0  0  0  0  0  0
    7.2851   43.2588   50.2895 N   0  0  0  0  0  0  0  0  0  0  0  0
    6.6498   42.5883   49.2821 C   0  0  0  0  0  0  0  0  0  0  0  0
    5.3873   42.3584   49.5716 N   0  0  0  0  0  0  0  0  0  0  0  0
    5.2047   42.9026   50.8165 C   0  0  0  0  0  0  0  0  0  0  0  0
    4.0550   42.9116   51.5035 N   0  0  0  0  0  0  0  0  0  0  0  0
    1.9684   42.5276   53.1314 C   0  0  0  0  0  0  0  0  0  0  0  0
    0.7796   42.5901   54.1011 C   0  0  0  0  0  0  0  0  0  0  0  0
    0.1845   43.8971   54.1248 O   0  0  0  0  0  0  0  0  0  0  0  0
    0.9478   46.9063   53.8804 H   0  0  0  0  0  0  0  0  0  0  0  0
    0.5764   46.6571   55.6228 H   0  0  0  0  0  0  0  0  0  0  0  0
    1.5211   44.5953   55.5623 H   0  0  0  0  0  0  0  0  0  0  0  0
    2.0541   45.2867   52.6334 H   0  0  0  0  0  0  0  0  0  0  0  0
    3.1311   45.5905   54.0450 H   0  0  0  0  0  0  0  0  0  0  0  0
    8.1989   43.9202   53.2707 H   0  0  0  0  0  0  0  0  0  0  0  0
    6.5042   47.1753   52.8616 H   0  0  0  0  0  0  0  0  0  0  0  0
    7.7287   49.1591   51.9853 H   0  0  0  0  0  0  0  0  0  0  0  0
   10.0927   48.9351   51.2231 H   0  0  0  0  0  0  0  0  0  0  0  0
   11.2239   46.7140   51.3200 H   0  0  0  0  0  0  0  0  0  0  0  0
   10.0002   44.7295   52.1942 H   0  0  0  0  0  0  0  0  0  0  0  0
    8.2514   43.5539   50.3073 H   0  0  0  0  0  0  0  0  0  0  0  0
    7.1346   42.2788   48.3444 H   0  0  0  0  0  0  0  0  0  0  0  0
    1.6097   42.6877   52.1039 H   0  0  0  0  0  0  0  0  0  0  0  0
    2.4471   41.5402   53.2088 H   0  0  0  0  0  0  0  0  0  0  0  0
    0.0217   41.8585   53.7843 H   0  0  0  0  0  0  0  0  0  0  0  0
    1.1479   42.3614   55.1121 H   0  0  0  0  0  0  0  0  0  0  0  0
  1  2  1  0
  2  3  1  0
  3  4  1  0
  4  5  1  0
  5  6  1  0
  6  7  2  0
  7  8  1  0
  8  9  1  0
  9 10  1  0
 10 11  2  0
 11 12  1  0
 12 13  2  0
 13 14  1  0
 14 15  2  0
  8 16  2  0
 16 17  1  0
 17 18  1  0
 18 19  2  0
 19 20  1  0
 20 21  2  0
  5 22  1  0
 22 23  1  0
 23 24  1  0
 24  3  1  0
 21  6  1  0
 15 10  1  0
 20 16  1  0
  2 25  1  0
  2 26  1  0
  3 27  1  1
  4 28  1  0
  4 29  1  0
  9 30  1  0
 11 31  1  0
 12 32  1  0
 13 33  1  0
 14 34  1  0
 15 35  1  0
 17 36  1  0
 18 37  1  0
 22 38  1  0
 22 39  1  0
 23 40  1  0
 23 41  1  0
M  END
>  <meeko>  (6) 
{"is_sidechain": false}

>  <CID>  (6) 
Z2613622720

>  <pose_index>  (6) 
10

>  <docking_score>  (6) 
-7.788

>  <rmsd_to_best_selected>  (6) 
1.4505197733675241

>  <MWT>  (6) 
328.3509999999998

>  <TPSA>  (6) 
78.96000000000001

>  <logP>  (6) 
2.2712000000000003

>  <HBD>  (6) 
2

>  <HBA>  (6) 
6

>  <SMILES>  (6) 
[H]c1c([H])c([H])c(N([H])c2nc(N3C([H])([H])C([H])([H])OC([H])(C([H])([H])F)C3([H])[H])nc3nc([H])n([H])c23)c([H])c1[H]

$$$$
