Z442313918_pose5
     RDKit          3D

 38 40  0  0  0  0  0  0  0  0999 V2000
    8.2865   48.4387   54.0242 C   0  0  0  0  0  0  0  0  0  0  0  0
    8.6610   47.3885   53.1406 O   0  0  0  0  0  0  0  0  0  0  0  0
    7.7289   46.4170   52.9073 C   0  0  0  0  0  0  0  0  0  0  0  0
    7.2820   46.3419   51.5859 C   0  0  0  0  0  0  0  0  0  0  0  0
    6.3265   45.3951   51.2041 C   0  0  0  0  0  0  0  0  0  0  0  0
    5.8106   44.4972   52.1471 C   0  0  0  0  0  0  0  0  0  0  0  0
    4.7909   43.4874   51.7785 C   0  0  0  0  0  0  0  0  0  0  0  0
    3.6261   43.5572   52.5094 N   0  0  0  0  0  0  0  0  0  0  0  0
    2.6648   42.7220   52.2780 C   0  0  0  0  0  0  0  0  0  0  0  0
    1.4606   42.6840   52.9318 N   0  0  0  0  0  0  0  0  0  0  0  0
    0.9455   43.5369   53.9294 C   0  0  0  0  0  0  0  0  0  0  0  0
    1.5234   43.7201   55.1890 C   0  0  0  0  0  0  0  0  0  0  0  0
    0.9465   44.5741   56.1359 C   0  0  0  0  0  0  0  0  0  0  0  0
   -0.2269   45.2596   55.8401 C   0  0  0  0  0  0  0  0  0  0  0  0
   -0.8243   45.0908   54.5962 C   0  0  0  0  0  0  0  0  0  0  0  0
   -0.2431   44.2364   53.6539 C   0  0  0  0  0  0  0  0  0  0  0  0
    2.8157   41.7639   51.3106 N   0  0  0  0  0  0  0  0  0  0  0  0
    3.9421   41.6196   50.5530 C   0  0  0  0  0  0  0  0  0  0  0  0
    4.0173   40.7358   49.7044 O   0  0  0  0  0  0  0  0  0  0  0  0
    5.0323   42.5723   50.8226 C   0  0  0  0  0  0  0  0  0  0  0  0
    6.2408   42.4589   50.0890 C   0  0  0  0  0  0  0  0  0  0  0  0
    7.2202   42.3534   49.4742 N   0  0  0  0  0  0  0  0  0  0  0  0
    6.2486   44.5852   53.4756 C   0  0  0  0  0  0  0  0  0  0  0  0
    7.2053   45.5363   53.8526 C   0  0  0  0  0  0  0  0  0  0  0  0
    8.3072   49.3970   53.4844 H   0  0  0  0  0  0  0  0  0  0  0  0
    7.2708   48.2537   54.4040 H   0  0  0  0  0  0  0  0  0  0  0  0
    8.9918   48.4775   54.8674 H   0  0  0  0  0  0  0  0  0  0  0  0
    7.6872   47.0369   50.8357 H   0  0  0  0  0  0  0  0  0  0  0  0
    5.9793   45.3554   50.1610 H   0  0  0  0  0  0  0  0  0  0  0  0
    0.8157   41.9550   52.6671 H   0  0  0  0  0  0  0  0  0  0  0  0
    2.4495   43.1826   55.4408 H   0  0  0  0  0  0  0  0  0  0  0  0
    1.4235   44.7038   57.1187 H   0  0  0  0  0  0  0  0  0  0  0  0
   -0.6792   45.9305   56.5853 H   0  0  0  0  0  0  0  0  0  0  0  0
   -1.7528   45.6285   54.3535 H   0  0  0  0  0  0  0  0  0  0  0  0
   -0.7268   44.1084   52.6744 H   0  0  0  0  0  0  0  0  0  0  0  0
    2.0801   41.1054   51.1128 H   0  0  0  0  0  0  0  0  0  0  0  0
    5.8363   43.8997   54.2306 H   0  0  0  0  0  0  0  0  0  0  0  0
    7.5445   45.5883   54.8977 H   0  0  0  0  0  0  0  0  0  0  0  0
  1  2  1  0
  2  3  1  0
  3  4  2  0
  4  5  1  0
  5  6  2  0
  6  7  1  0
  7  8  1  0
  8  9  2  0
  9 10  1  0
 10 11  1  0
 11 12  2  0
 12 13  1  0
 13 14  2  0
 14 15  1  0
 15 16  2  0
  9 17  1  0
 17 18  1  0
 18 19  2  0
 18 20  1  0
 20 21  1  0
 21 22  3  0
  6 23  1  0
 23 24  2  0
 24  3  1  0
 20  7  2  0
 16 11  1  0
  1 25  1  0
  1 26  1  0
  1 27  1  0
  4 28  1  0
  5 29  1  0
 10 30  1  0
 12 31  1  0
 13 32  1  0
 14 33  1  0
 15 34  1  0
 16 35  1  0
 17 36  1  0
 23 37  1  0
 24 38  1  0
M  END
>  <meeko>  (1) 
{"is_sidechain": false}

>  <CID>  (1) 
Z442313918

>  <pose_index>  (1) 
5

>  <docking_score>  (1) 
-7.807

>  <rmsd_to_best_selected>  (1) 
0.9705921107177826

>  <MWT>  (1) 
318.33599999999973

>  <TPSA>  (1) 
90.79999999999998

>  <logP>  (1) 
3.0607800000000003

>  <HBD>  (1) 
2

>  <HBA>  (1) 
5

>  <SMILES>  (1) 
[H]c1c([H])c([H])c(N([H])c2nc(-c3c([H])c([H])c(OC([H])([H])[H])c([H])c3[H])c(C#N)c(=O)n2[H])c([H])c1[H]

$$$$
Z442313918_pose1
     RDKit          3D

 38 40  0  0  0  0  0  0  0  0999 V2000
    9.4780   47.6360   53.7580 C   0  0  0  0  0  0  0  0  0  0  0  0
    8.1590   47.9640   53.3380 O   0  0  0  0  0  0  0  0  0  0  0  0
    7.3210   46.9190   53.0660 C   0  0  0  0  0  0  0  0  0  0  0  0
    6.9240   46.8220   51.7300 C   0  0  0  0  0  0  0  0  0  0  0  0
    6.0660   45.8020   51.3090 C   0  0  0  0  0  0  0  0  0  0  0  0
    5.5990   44.8530   52.2260 C   0  0  0  0  0  0  0  0  0  0  0  0
    4.6800   43.7650   51.8150 C   0  0  0  0  0  0  0  0  0  0  0  0
    3.5020   43.7110   52.5260 N   0  0  0  0  0  0  0  0  0  0  0  0
    2.6250   42.7990   52.2570 C   0  0  0  0  0  0  0  0  0  0  0  0
    1.4190   42.6350   52.8870 N   0  0  0  0  0  0  0  0  0  0  0  0
    0.8120   43.4130   53.8940 C   0  0  0  0  0  0  0  0  0  0  0  0
    1.5030   44.2710   54.7550 C   0  0  0  0  0  0  0  0  0  0  0  0
    0.8340   45.0030   55.7440 C   0  0  0  0  0  0  0  0  0  0  0  0
   -0.5440   44.8850   55.8920 C   0  0  0  0  0  0  0  0  0  0  0  0
   -1.2540   44.0350   55.0520 C   0  0  0  0  0  0  0  0  0  0  0  0
   -0.5810   43.3060   54.0660 C   0  0  0  0  0  0  0  0  0  0  0  0
    2.8770   41.8820   51.2700 N   0  0  0  0  0  0  0  0  0  0  0  0
    4.0250   41.8590   50.5310 C   0  0  0  0  0  0  0  0  0  0  0  0
    4.1940   41.0070   49.6630 O   0  0  0  0  0  0  0  0  0  0  0  0
    5.0190   42.8990   50.8420 C   0  0  0  0  0  0  0  0  0  0  0  0
    6.2450   42.9130   50.1290 C   0  0  0  0  0  0  0  0  0  0  0  0
    7.2380   42.9210   49.5270 N   0  0  0  0  0  0  0  0  0  0  0  0
    5.9850   44.9620   53.5690 C   0  0  0  0  0  0  0  0  0  0  0  0
    6.8440   45.9860   53.9850 C   0  0  0  0  0  0  0  0  0  0  0  0
    9.5208   47.6254   54.8571 H   0  0  0  0  0  0  0  0  0  0  0  0
    9.7498   46.6429   53.3708 H   0  0  0  0  0  0  0  0  0  0  0  0
   10.1833   48.3861   53.3708 H   0  0  0  0  0  0  0  0  0  0  0  0
    7.2915   47.5580   50.9998 H   0  0  0  0  0  0  0  0  0  0  0  0
    5.7571   45.7449   50.2548 H   0  0  0  0  0  0  0  0  0  0  0  0
    0.8470   41.8580   52.5930 H   0  0  0  0  0  0  0  0  0  0  0  0
    2.5935   44.3731   54.6536 H   0  0  0  0  0  0  0  0  0  0  0  0
    1.4006   45.6739   56.4064 H   0  0  0  0  0  0  0  0  0  0  0  0
   -1.0686   45.4607   56.6688 H   0  0  0  0  0  0  0  0  0  0  0  0
   -2.3439   43.9358   55.1625 H   0  0  0  0  0  0  0  0  0  0  0  0
   -1.1534   42.6337   53.4100 H   0  0  0  0  0  0  0  0  0  0  0  0
    2.2080   41.1650   51.0430 H   0  0  0  0  0  0  0  0  0  0  0  0
    5.6089   44.2351   54.3040 H   0  0  0  0  0  0  0  0  0  0  0  0
    7.1437   46.0546   55.0412 H   0  0  0  0  0  0  0  0  0  0  0  0
  1  2  1  0
  2  3  1  0
  3  4  2  0
  4  5  1  0
  5  6  2  0
  6  7  1  0
  7  8  1  0
  8  9  2  0
  9 10  1  0
 10 11  1  0
 11 12  2  0
 12 13  1  0
 13 14  2  0
 14 15  1  0
 15 16  2  0
  9 17  1  0
 17 18  1  0
 18 19  2  0
 18 20  1  0
 20 21  1  0
 21 22  3  0
  6 23  1  0
 23 24  2  0
 24  3  1  0
 20  7  2  0
 16 11  1  0
  1 25  1  0
  1 26  1  0
  1 27  1  0
  4 28  1  0
  5 29  1  0
 10 30  1  0
 12 31  1  0
 13 32  1  0
 14 33  1  0
 15 34  1  0
 16 35  1  0
 17 36  1  0
 23 37  1  0
 24 38  1  0
M  END
>  <meeko>  (2) 
{"is_sidechain": false}

>  <CID>  (2) 
Z442313918

>  <pose_index>  (2) 
1

>  <docking_score>  (2) 
-8.993

>  <rmsd_to_best_selected>  (2) 
0.0

>  <MWT>  (2) 
318.33599999999973

>  <TPSA>  (2) 
90.79999999999998

>  <logP>  (2) 
3.0607800000000003

>  <HBD>  (2) 
2

>  <HBA>  (2) 
5

>  <SMILES>  (2) 
[H]c1c([H])c([H])c(N([H])c2nc(-c3c([H])c([H])c(OC([H])([H])[H])c([H])c3[H])c(C#N)c(=O)n2[H])c([H])c1[H]

$$$$
Z442313918_pose2
     RDKit          3D

 38 40  0  0  0  0  0  0  0  0999 V2000
    8.4052   48.1061   54.3847 C   0  0  0  0  0  0  0  0  0  0  0  0
    8.8248   47.0758   53.4980 O   0  0  0  0  0  0  0  0  0  0  0  0
    7.8463   46.2820   52.9668 C   0  0  0  0  0  0  0  0  0  0  0  0
    7.2551   45.3993   53.8747 C   0  0  0  0  0  0  0  0  0  0  0  0
    6.2407   44.5272   53.4685 C   0  0  0  0  0  0  0  0  0  0  0  0
    5.7968   44.5344   52.1409 C   0  0  0  0  0  0  0  0  0  0  0  0
    4.7298   43.6161   51.6752 C   0  0  0  0  0  0  0  0  0  0  0  0
    3.5648   43.6751   52.4058 N   0  0  0  0  0  0  0  0  0  0  0  0
    2.5652   42.9143   52.0948 C   0  0  0  0  0  0  0  0  0  0  0  0
    1.3564   42.8749   52.7378 N   0  0  0  0  0  0  0  0  0  0  0  0
    0.8754   43.6549   53.8092 C   0  0  0  0  0  0  0  0  0  0  0  0
    1.3160   44.9494   54.1060 C   0  0  0  0  0  0  0  0  0  0  0  0
    0.8026   45.6598   55.1966 C   0  0  0  0  0  0  0  0  0  0  0  0
   -0.1614   45.0846   56.0184 C   0  0  0  0  0  0  0  0  0  0  0  0
   -0.6126   43.7972   55.7479 C   0  0  0  0  0  0  0  0  0  0  0  0
   -0.0963   43.0916   54.6556 C   0  0  0  0  0  0  0  0  0  0  0  0
    2.6765   42.0453   51.0413 N   0  0  0  0  0  0  0  0  0  0  0  0
    3.8000   41.9163   50.2770 C   0  0  0  0  0  0  0  0  0  0  0  0
    3.8387   41.1138   49.3491 O   0  0  0  0  0  0  0  0  0  0  0  0
    4.9341   42.7842   50.6375 C   0  0  0  0  0  0  0  0  0  0  0  0
    6.1407   42.6793   49.9004 C   0  0  0  0  0  0  0  0  0  0  0  0
    7.1204   42.6053   49.2821 N   0  0  0  0  0  0  0  0  0  0  0  0
    6.4032   45.4096   51.2290 C   0  0  0  0  0  0  0  0  0  0  0  0
    7.4189   46.2811   51.6407 C   0  0  0  0  0  0  0  0  0  0  0  0
    7.7853   47.6726   55.1833 H   0  0  0  0  0  0  0  0  0  0  0  0
    9.2879   48.5905   54.8278 H   0  0  0  0  0  0  0  0  0  0  0  0
    7.8181   48.8519   53.8287 H   0  0  0  0  0  0  0  0  0  0  0  0
    7.5919   45.3906   54.9218 H   0  0  0  0  0  0  0  0  0  0  0  0
    5.7903   43.8337   54.1939 H   0  0  0  0  0  0  0  0  0  0  0  0
    0.6777   42.2073   52.4033 H   0  0  0  0  0  0  0  0  0  0  0  0
    2.0810   45.4178   53.4693 H   0  0  0  0  0  0  0  0  0  0  0  0
    1.1630   46.6780   55.4053 H   0  0  0  0  0  0  0  0  0  0  0  0
   -0.5638   45.6440   56.8758 H   0  0  0  0  0  0  0  0  0  0  0  0
   -1.3746   43.3342   56.3921 H   0  0  0  0  0  0  0  0  0  0  0  0
   -0.4588   42.0728   54.4542 H   0  0  0  0  0  0  0  0  0  0  0  0
    1.9105   41.4454   50.7798 H   0  0  0  0  0  0  0  0  0  0  0  0
    6.0774   45.4117   50.1784 H   0  0  0  0  0  0  0  0  0  0  0  0
    7.8807   46.9668   50.9151 H   0  0  0  0  0  0  0  0  0  0  0  0
  1  2  1  0
  2  3  1  0
  3  4  2  0
  4  5  1  0
  5  6  2  0
  6  7  1  0
  7  8  1  0
  8  9  2  0
  9 10  1  0
 10 11  1  0
 11 12  2  0
 12 13  1  0
 13 14  2  0
 14 15  1  0
 15 16  2  0
  9 17  1  0
 17 18  1  0
 18 19  2  0
 18 20  1  0
 20 21  1  0
 21 22  3  0
  6 23  1  0
 23 24  2  0
 24  3  1  0
 20  7  2  0
 16 11  1  0
  1 25  1  0
  1 26  1  0
  1 27  1  0
  4 28  1  0
  5 29  1  0
 10 30  1  0
 12 31  1  0
 13 32  1  0
 14 33  1  0
 15 34  1  0
 16 35  1  0
 17 36  1  0
 23 37  1  0
 24 38  1  0
M  END
>  <meeko>  (3) 
{"is_sidechain": false}

>  <CID>  (3) 
Z442313918

>  <pose_index>  (3) 
2

>  <docking_score>  (3) 
-8.576

>  <rmsd_to_best_selected>  (3) 
0.986245629084304

>  <MWT>  (3) 
318.33599999999973

>  <TPSA>  (3) 
90.79999999999998

>  <logP>  (3) 
3.0607800000000003

>  <HBD>  (3) 
2

>  <HBA>  (3) 
5

>  <SMILES>  (3) 
[H]c1c([H])c([H])c(N([H])c2nc(-c3c([H])c([H])c(OC([H])([H])[H])c([H])c3[H])c(C#N)c(=O)n2[H])c([H])c1[H]

$$$$
Z442313918_pose3
     RDKit          3D

 38 40  0  0  0  0  0  0  0  0999 V2000
    9.3185   47.5883   53.8886 C   0  0  0  0  0  0  0  0  0  0  0  0
    8.1660   48.0003   53.1640 O   0  0  0  0  0  0  0  0  0  0  0  0
    7.2976   47.0194   52.7750 C   0  0  0  0  0  0  0  0  0  0  0  0
    7.3341   45.8639   53.5590 C   0  0  0  0  0  0  0  0  0  0  0  0
    6.4994   44.7781   53.2753 C   0  0  0  0  0  0  0  0  0  0  0  0
    5.6051   44.8413   52.2004 C   0  0  0  0  0  0  0  0  0  0  0  0
    4.7136   43.7051   51.8664 C   0  0  0  0  0  0  0  0  0  0  0  0
    3.5309   43.6784   52.5709 N   0  0  0  0  0  0  0  0  0  0  0  0
    2.6759   42.7289   52.3666 C   0  0  0  0  0  0  0  0  0  0  0  0
    1.4675   42.5874   52.9978 N   0  0  0  0  0  0  0  0  0  0  0  0
    0.8356   43.4254   53.9388 C   0  0  0  0  0  0  0  0  0  0  0  0
    1.4465   43.9176   55.0966 C   0  0  0  0  0  0  0  0  0  0  0  0
    0.7503   44.7352   55.9940 C   0  0  0  0  0  0  0  0  0  0  0  0
   -0.5771   45.0731   55.7519 C   0  0  0  0  0  0  0  0  0  0  0  0
   -1.2091   44.5929   54.6111 C   0  0  0  0  0  0  0  0  0  0  0  0
   -0.5090   43.7773   53.7165 C   0  0  0  0  0  0  0  0  0  0  0  0
    2.9570   41.7467   51.4543 N   0  0  0  0  0  0  0  0  0  0  0  0
    4.1111   41.6924   50.7267 C   0  0  0  0  0  0  0  0  0  0  0  0
    4.3062   40.7820   49.9275 O   0  0  0  0  0  0  0  0  0  0  0  0
    5.0802   42.7761   50.9648 C   0  0  0  0  0  0  0  0  0  0  0  0
    6.3116   42.7630   50.2615 C   0  0  0  0  0  0  0  0  0  0  0  0
    7.3204   42.7728   49.6862 N   0  0  0  0  0  0  0  0  0  0  0  0
    5.5824   45.9949   51.4057 C   0  0  0  0  0  0  0  0  0  0  0  0
    6.4199   47.0791   51.6940 C   0  0  0  0  0  0  0  0  0  0  0  0
   10.2230   47.8660   53.3276 H   0  0  0  0  0  0  0  0  0  0  0  0
    9.3301   48.0829   54.8711 H   0  0  0  0  0  0  0  0  0  0  0  0
    9.2936   46.4974   54.0276 H   0  0  0  0  0  0  0  0  0  0  0  0
    8.0282   45.8072   54.4105 H   0  0  0  0  0  0  0  0  0  0  0  0
    6.5458   43.8727   53.8983 H   0  0  0  0  0  0  0  0  0  0  0  0
    0.9161   41.7779   52.7599 H   0  0  0  0  0  0  0  0  0  0  0  0
    2.4945   43.6571   55.3060 H   0  0  0  0  0  0  0  0  0  0  0  0
    1.2554   45.1126   56.8953 H   0  0  0  0  0  0  0  0  0  0  0  0
   -1.1228   45.7159   56.4584 H   0  0  0  0  0  0  0  0  0  0  0  0
   -2.2589   44.8541   54.4120 H   0  0  0  0  0  0  0  0  0  0  0  0
   -1.0210   43.4020   52.8182 H   0  0  0  0  0  0  0  0  0  0  0  0
    2.3057   40.9992   51.2774 H   0  0  0  0  0  0  0  0  0  0  0  0
    4.8988   46.0494   50.5456 H   0  0  0  0  0  0  0  0  0  0  0  0
    6.3851   47.9810   51.0653 H   0  0  0  0  0  0  0  0  0  0  0  0
  1  2  1  0
  2  3  1  0
  3  4  2  0
  4  5  1  0
  5  6  2  0
  6  7  1  0
  7  8  1  0
  8  9  2  0
  9 10  1  0
 10 11  1  0
 11 12  2  0
 12 13  1  0
 13 14  2  0
 14 15  1  0
 15 16  2  0
  9 17  1  0
 17 18  1  0
 18 19  2  0
 18 20  1  0
 20 21  1  0
 21 22  3  0
  6 23  1  0
 23 24  2  0
 24  3  1  0
 20  7  2  0
 16 11  1  0
  1 25  1  0
  1 26  1  0
  1 27  1  0
  4 28  1  0
  5 29  1  0
 10 30  1  0
 12 31  1  0
 13 32  1  0
 14 33  1  0
 15 34  1  0
 16 35  1  0
 17 36  1  0
 23 37  1  0
 24 38  1  0
M  END
>  <meeko>  (4) 
{"is_sidechain": false}

>  <CID>  (4) 
Z442313918

>  <pose_index>  (4) 
3

>  <docking_score>  (4) 
-8.39

>  <rmsd_to_best_selected>  (4) 
0.5825108707019958

>  <MWT>  (4) 
318.33599999999973

>  <TPSA>  (4) 
90.79999999999998

>  <logP>  (4) 
3.0607800000000003

>  <HBD>  (4) 
2

>  <HBA>  (4) 
5

>  <SMILES>  (4) 
[H]c1c([H])c([H])c(N([H])c2nc(-c3c([H])c([H])c(OC([H])([H])[H])c([H])c3[H])c(C#N)c(=O)n2[H])c([H])c1[H]

$$$$
Z442313918_pose4
     RDKit          3D

 38 40  0  0  0  0  0  0  0  0999 V2000
    9.1318   48.1780   52.9239 C   0  0  0  0  0  0  0  0  0  0  0  0
    8.3987   47.5219   53.9508 O   0  0  0  0  0  0  0  0  0  0  0  0
    7.5507   46.5231   53.5612 C   0  0  0  0  0  0  0  0  0  0  0  0
    6.8300   46.7911   52.3939 C   0  0  0  0  0  0  0  0  0  0  0  0
    5.9241   45.8587   51.8804 C   0  0  0  0  0  0  0  0  0  0  0  0
    5.7337   44.6329   52.5290 C   0  0  0  0  0  0  0  0  0  0  0  0
    4.7736   43.6262   52.0175 C   0  0  0  0  0  0  0  0  0  0  0  0
    3.5489   43.6311   52.6464 N   0  0  0  0  0  0  0  0  0  0  0  0
    2.6321   42.7920   52.2858 C   0  0  0  0  0  0  0  0  0  0  0  0
    1.3783   42.6935   52.8281 N   0  0  0  0  0  0  0  0  0  0  0  0
    0.7579   43.4768   53.8221 C   0  0  0  0  0  0  0  0  0  0  0  0
    1.3686   43.8669   55.0182 C   0  0  0  0  0  0  0  0  0  0  0  0
    0.6853   44.6350   55.9674 C   0  0  0  0  0  0  0  0  0  0  0  0
   -0.6306   45.0254   55.7391 C   0  0  0  0  0  0  0  0  0  0  0  0
   -1.2622   44.6458   54.5604 C   0  0  0  0  0  0  0  0  0  0  0  0
   -0.5752   43.8786   53.6150 C   0  0  0  0  0  0  0  0  0  0  0  0
    2.8885   41.8939   51.2842 N   0  0  0  0  0  0  0  0  0  0  0  0
    4.0806   41.8146   50.6212 C   0  0  0  0  0  0  0  0  0  0  0  0
    4.2499   40.9830   49.7345 O   0  0  0  0  0  0  0  0  0  0  0  0
    5.1189   42.7723   51.0367 C   0  0  0  0  0  0  0  0  0  0  0  0
    6.3893   42.7240   50.4066 C   0  0  0  0  0  0  0  0  0  0  0  0
    7.4357   42.6982   49.9051 N   0  0  0  0  0  0  0  0  0  0  0  0
    6.4453   44.3730   53.7092 C   0  0  0  0  0  0  0  0  0  0  0  0
    7.3512   45.3108   54.2192 C   0  0  0  0  0  0  0  0  0  0  0  0
    9.6203   49.0729   53.3367 H   0  0  0  0  0  0  0  0  0  0  0  0
    9.8955   47.4945   52.5246 H   0  0  0  0  0  0  0  0  0  0  0  0
    8.4464   48.4742   52.1160 H   0  0  0  0  0  0  0  0  0  0  0  0
    6.9777   47.7483   51.8726 H   0  0  0  0  0  0  0  0  0  0  0  0
    5.3595   46.0887   50.9648 H   0  0  0  0  0  0  0  0  0  0  0  0
    0.7758   41.9677   52.4682 H   0  0  0  0  0  0  0  0  0  0  0  0
    2.4071   43.5638   55.2168 H   0  0  0  0  0  0  0  0  0  0  0  0
    1.1907   44.9316   56.8983 H   0  0  0  0  0  0  0  0  0  0  0  0
   -1.1669   45.6297   56.4855 H   0  0  0  0  0  0  0  0  0  0  0  0
   -2.3026   44.9491   54.3717 H   0  0  0  0  0  0  0  0  0  0  0  0
   -1.0881   43.5822   52.6881 H   0  0  0  0  0  0  0  0  0  0  0  0
    2.1904   41.2334   50.9855 H   0  0  0  0  0  0  0  0  0  0  0  0
    6.2900   43.4221   54.2399 H   0  0  0  0  0  0  0  0  0  0  0  0
    7.9073   45.0901   55.1423 H   0  0  0  0  0  0  0  0  0  0  0  0
  1  2  1  0
  2  3  1  0
  3  4  2  0
  4  5  1  0
  5  6  2  0
  6  7  1  0
  7  8  1  0
  8  9  2  0
  9 10  1  0
 10 11  1  0
 11 12  2  0
 12 13  1  0
 13 14  2  0
 14 15  1  0
 15 16  2  0
  9 17  1  0
 17 18  1  0
 18 19  2  0
 18 20  1  0
 20 21  1  0
 21 22  3  0
  6 23  1  0
 23 24  2  0
 24  3  1  0
 20  7  2  0
 16 11  1  0
  1 25  1  0
  1 26  1  0
  1 27  1  0
  4 28  1  0
  5 29  1  0
 10 30  1  0
 12 31  1  0
 13 32  1  0
 14 33  1  0
 15 34  1  0
 16 35  1  0
 17 36  1  0
 23 37  1  0
 24 38  1  0
M  END
>  <meeko>  (5) 
{"is_sidechain": false}

>  <CID>  (5) 
Z442313918

>  <pose_index>  (5) 
4

>  <docking_score>  (5) 
-7.886

>  <rmsd_to_best_selected>  (5) 
0.8354284865932269

>  <MWT>  (5) 
318.33599999999973

>  <TPSA>  (5) 
90.79999999999998

>  <logP>  (5) 
3.0607800000000003

>  <HBD>  (5) 
2

>  <HBA>  (5) 
5

>  <SMILES>  (5) 
[H]c1c([H])c([H])c(N([H])c2nc(-c3c([H])c([H])c(OC([H])([H])[H])c([H])c3[H])c(C#N)c(=O)n2[H])c([H])c1[H]

$$$$
Z442313918_pose6
     RDKit          3D

 38 40  0  0  0  0  0  0  0  0999 V2000
    8.2178   48.2927   54.2311 C   0  0  0  0  0  0  0  0  0  0  0  0
    8.6947   47.2175   53.4324 O   0  0  0  0  0  0  0  0  0  0  0  0
    7.7941   46.2395   53.1131 C   0  0  0  0  0  0  0  0  0  0  0  0
    6.8880   46.5858   52.1073 C   0  0  0  0  0  0  0  0  0  0  0  0
    5.9106   45.6819   51.6807 C   0  0  0  0  0  0  0  0  0  0  0  0
    5.8336   44.4074   52.2546 C   0  0  0  0  0  0  0  0  0  0  0  0
    4.8018   43.4291   51.8332 C   0  0  0  0  0  0  0  0  0  0  0  0
    3.5955   43.5533   52.4841 N   0  0  0  0  0  0  0  0  0  0  0  0
    2.6210   42.7493   52.2017 C   0  0  0  0  0  0  0  0  0  0  0  0
    1.3761   42.7661   52.7735 N   0  0  0  0  0  0  0  0  0  0  0  0
    0.8281   43.6525   53.7215 C   0  0  0  0  0  0  0  0  0  0  0  0
   -0.3149   43.3894   54.4846 C   0  0  0  0  0  0  0  0  0  0  0  0
   -0.8108   44.3256   55.3980 C   0  0  0  0  0  0  0  0  0  0  0  0
   -0.1725   45.5495   55.5655 C   0  0  0  0  0  0  0  0  0  0  0  0
    0.9632   45.8377   54.8170 C   0  0  0  0  0  0  0  0  0  0  0  0
    1.4545   44.8992   53.9051 C   0  0  0  0  0  0  0  0  0  0  0  0
    2.8002   41.7706   51.2597 N   0  0  0  0  0  0  0  0  0  0  0  0
    3.9676   41.5730   50.5805 C   0  0  0  0  0  0  0  0  0  0  0  0
    4.0663   40.6733   49.7526 O   0  0  0  0  0  0  0  0  0  0  0  0
    5.0726   42.4903   50.9088 C   0  0  0  0  0  0  0  0  0  0  0  0
    6.3221   42.3201   50.2585 C   0  0  0  0  0  0  0  0  0  0  0  0
    7.3497   42.1670   49.7409 N   0  0  0  0  0  0  0  0  0  0  0  0
    6.7319   44.0684   53.2757 C   0  0  0  0  0  0  0  0  0  0  0  0
    7.7089   44.9776   53.6987 C   0  0  0  0  0  0  0  0  0  0  0  0
    8.4828   49.2484   53.7554 H   0  0  0  0  0  0  0  0  0  0  0  0
    7.1242   48.2215   54.3266 H   0  0  0  0  0  0  0  0  0  0  0  0
    8.6772   48.2400   55.2291 H   0  0  0  0  0  0  0  0  0  0  0  0
    6.9445   47.5824   51.6453 H   0  0  0  0  0  0  0  0  0  0  0  0
    5.2006   45.9728   50.8925 H   0  0  0  0  0  0  0  0  0  0  0  0
    0.7239   42.0569   52.4766 H   0  0  0  0  0  0  0  0  0  0  0  0
   -0.8338   42.4271   54.3638 H   0  0  0  0  0  0  0  0  0  0  0  0
   -1.7103   44.0925   55.9867 H   0  0  0  0  0  0  0  0  0  0  0  0
   -0.5632   46.2842   56.2849 H   0  0  0  0  0  0  0  0  0  0  0  0
    1.4746   46.8035   54.9425 H   0  0  0  0  0  0  0  0  0  0  0  0
    2.3521   45.1408   53.3169 H   0  0  0  0  0  0  0  0  0  0  0  0
    2.0550   41.1355   51.0219 H   0  0  0  0  0  0  0  0  0  0  0  0
    6.6687   43.0777   53.7495 H   0  0  0  0  0  0  0  0  0  0  0  0
    8.4118   44.6950   54.4962 H   0  0  0  0  0  0  0  0  0  0  0  0
  1  2  1  0
  2  3  1  0
  3  4  2  0
  4  5  1  0
  5  6  2  0
  6  7  1  0
  7  8  1  0
  8  9  2  0
  9 10  1  0
 10 11  1  0
 11 12  2  0
 12 13  1  0
 13 14  2  0
 14 15  1  0
 15 16  2  0
  9 17  1  0
 17 18  1  0
 18 19  2  0
 18 20  1  0
 20 21  1  0
 21 22  3  0
  6 23  1  0
 23 24  2  0
 24  3  1  0
 20  7  2  0
 16 11  1  0
  1 25  1  0
  1 26  1  0
  1 27  1  0
  4 28  1  0
  5 29  1  0
 10 30  1  0
 12 31  1  0
 13 32  1  0
 14 33  1  0
 15 34  1  0
 16 35  1  0
 17 36  1  0
 23 37  1  0
 24 38  1  0
M  END
>  <meeko>  (6) 
{"is_sidechain": false}

>  <CID>  (6) 
Z442313918

>  <pose_index>  (6) 
6

>  <docking_score>  (6) 
-7.767

>  <rmsd_to_best_selected>  (6) 
1.0824589207570157

>  <MWT>  (6) 
318.33599999999973

>  <TPSA>  (6) 
90.79999999999998

>  <logP>  (6) 
3.0607800000000003

>  <HBD>  (6) 
2

>  <HBA>  (6) 
5

>  <SMILES>  (6) 
[H]c1c([H])c([H])c(N([H])c2nc(-c3c([H])c([H])c(OC([H])([H])[H])c([H])c3[H])c(C#N)c(=O)n2[H])c([H])c1[H]

$$$$
Z442313918_pose7
     RDKit          3D

 38 40  0  0  0  0  0  0  0  0999 V2000
    8.5207   48.5058   53.2278 C   0  0  0  0  0  0  0  0  0  0  0  0
    8.6552   47.2276   53.8373 O   0  0  0  0  0  0  0  0  0  0  0  0
    7.7694   46.2613   53.4464 C   0  0  0  0  0  0  0  0  0  0  0  0
    6.8603   46.6655   52.4657 C   0  0  0  0  0  0  0  0  0  0  0  0
    5.8972   45.7810   51.9725 C   0  0  0  0  0  0  0  0  0  0  0  0
    5.8371   44.4672   52.4523 C   0  0  0  0  0  0  0  0  0  0  0  0
    4.8220   43.5075   51.9588 C   0  0  0  0  0  0  0  0  0  0  0  0
    3.6075   43.5755   52.6045 N   0  0  0  0  0  0  0  0  0  0  0  0
    2.6464   42.7810   52.2613 C   0  0  0  0  0  0  0  0  0  0  0  0
    1.3958   42.7461   52.8202 N   0  0  0  0  0  0  0  0  0  0  0  0
    0.8284   43.5642   53.8191 C   0  0  0  0  0  0  0  0  0  0  0  0
    1.4309   43.8435   55.0497 C   0  0  0  0  0  0  0  0  0  0  0  0
    0.8006   44.6552   56.0002 C   0  0  0  0  0  0  0  0  0  0  0  0
   -0.4513   45.2005   55.7380 C   0  0  0  0  0  0  0  0  0  0  0  0
   -1.0750   44.9337   54.5241 C   0  0  0  0  0  0  0  0  0  0  0  0
   -0.4400   44.1225   53.5770 C   0  0  0  0  0  0  0  0  0  0  0  0
    2.8447   41.8669   51.2599 N   0  0  0  0  0  0  0  0  0  0  0  0
    4.0207   41.7265   50.5821 C   0  0  0  0  0  0  0  0  0  0  0  0
    4.1371   40.8827   49.6971 O   0  0  0  0  0  0  0  0  0  0  0  0
    5.1118   42.6326   50.9781 C   0  0  0  0  0  0  0  0  0  0  0  0
    6.3691   42.5187   50.3312 C   0  0  0  0  0  0  0  0  0  0  0  0
    7.4066   42.4233   49.8202 N   0  0  0  0  0  0  0  0  0  0  0  0
    6.7398   44.0692   53.4483 C   0  0  0  0  0  0  0  0  0  0  0  0
    7.7022   44.9591   53.9393 C   0  0  0  0  0  0  0  0  0  0  0  0
    8.3813   48.3822   52.1437 H   0  0  0  0  0  0  0  0  0  0  0  0
    7.6489   49.0248   53.6528 H   0  0  0  0  0  0  0  0  0  0  0  0
    9.4280   49.0988   53.4156 H   0  0  0  0  0  0  0  0  0  0  0  0
    6.9030   47.6935   52.0767 H   0  0  0  0  0  0  0  0  0  0  0  0
    5.1846   46.1180   51.2052 H   0  0  0  0  0  0  0  0  0  0  0  0
    0.7546   42.0499   52.4722 H   0  0  0  0  0  0  0  0  0  0  0  0
    2.4195   43.4170   55.2753 H   0  0  0  0  0  0  0  0  0  0  0  0
    1.2981   44.8626   56.9591 H   0  0  0  0  0  0  0  0  0  0  0  0
   -0.9450   45.8386   56.4858 H   0  0  0  0  0  0  0  0  0  0  0  0
   -2.0660   45.3598   54.3086 H   0  0  0  0  0  0  0  0  0  0  0  0
   -0.9442   43.9166   52.6213 H   0  0  0  0  0  0  0  0  0  0  0  0
    2.1091   41.2405   50.9744 H   0  0  0  0  0  0  0  0  0  0  0  0
    6.6913   43.0457   53.8484 H   0  0  0  0  0  0  0  0  0  0  0  0
    8.4076   44.6300   54.7165 H   0  0  0  0  0  0  0  0  0  0  0  0
  1  2  1  0
  2  3  1  0
  3  4  2  0
  4  5  1  0
  5  6  2  0
  6  7  1  0
  7  8  1  0
  8  9  2  0
  9 10  1  0
 10 11  1  0
 11 12  2  0
 12 13  1  0
 13 14  2  0
 14 15  1  0
 15 16  2  0
  9 17  1  0
 17 18  1  0
 18 19  2  0
 18 20  1  0
 20 21  1  0
 21 22  3  0
  6 23  1  0
 23 24  2  0
 24  3  1  0
 20  7  2  0
 16 11  1  0
  1 25  1  0
  1 26  1  0
  1 27  1  0
  4 28  1  0
  5 29  1  0
 10 30  1  0
 12 31  1  0
 13 32  1  0
 14 33  1  0
 15 34  1  0
 16 35  1  0
 17 36  1  0
 23 37  1  0
 24 38  1  0
M  END
>  <meeko>  (7) 
{"is_sidechain": false}

>  <CID>  (7) 
Z442313918

>  <pose_index>  (7) 
7

>  <docking_score>  (7) 
-7.657

>  <rmsd_to_best_selected>  (7) 
1.0640984567467129

>  <MWT>  (7) 
318.33599999999973

>  <TPSA>  (7) 
90.79999999999998

>  <logP>  (7) 
3.0607800000000003

>  <HBD>  (7) 
2

>  <HBA>  (7) 
5

>  <SMILES>  (7) 
[H]c1c([H])c([H])c(N([H])c2nc(-c3c([H])c([H])c(OC([H])([H])[H])c([H])c3[H])c(C#N)c(=O)n2[H])c([H])c1[H]

$$$$
Z442313918_pose8
     RDKit          3D

 38 40  0  0  0  0  0  0  0  0999 V2000
    9.3524   48.0072   53.2924 C   0  0  0  0  0  0  0  0  0  0  0  0
    7.9460   48.1489   53.1335 O   0  0  0  0  0  0  0  0  0  0  0  0
    7.2317   47.0049   52.9097 C   0  0  0  0  0  0  0  0  0  0  0  0
    6.1265   47.1617   52.0698 C   0  0  0  0  0  0  0  0  0  0  0  0
    5.3052   46.0752   51.7555 C   0  0  0  0  0  0  0  0  0  0  0  0
    5.5873   44.8061   52.2759 C   0  0  0  0  0  0  0  0  0  0  0  0
    4.7309   43.6355   51.9702 C   0  0  0  0  0  0  0  0  0  0  0  0
    3.5223   43.6232   52.6301 N   0  0  0  0  0  0  0  0  0  0  0  0
    2.6933   42.6469   52.4448 C   0  0  0  0  0  0  0  0  0  0  0  0
    1.4650   42.5153   53.0372 N   0  0  0  0  0  0  0  0  0  0  0  0
    0.7806   43.3892   53.9061 C   0  0  0  0  0  0  0  0  0  0  0  0
    0.6240   44.7614   53.6850 C   0  0  0  0  0  0  0  0  0  0  0  0
   -0.0567   45.5715   54.6015 C   0  0  0  0  0  0  0  0  0  0  0  0
   -0.5923   45.0221   55.7615 C   0  0  0  0  0  0  0  0  0  0  0  0
   -0.4456   43.6620   56.0067 C   0  0  0  0  0  0  0  0  0  0  0  0
    0.2353   42.8568   55.0876 C   0  0  0  0  0  0  0  0  0  0  0  0
    3.0282   41.6224   51.5995 N   0  0  0  0  0  0  0  0  0  0  0  0
    4.2107   41.5535   50.9201 C   0  0  0  0  0  0  0  0  0  0  0  0
    4.4537   40.6045   50.1807 O   0  0  0  0  0  0  0  0  0  0  0  0
    5.1497   42.6667   51.1356 C   0  0  0  0  0  0  0  0  0  0  0  0
    6.4070   42.6418   50.4816 C   0  0  0  0  0  0  0  0  0  0  0  0
    7.4379   42.5991   49.9481 N   0  0  0  0  0  0  0  0  0  0  0  0
    6.6867   44.6548   53.1321 C   0  0  0  0  0  0  0  0  0  0  0  0
    7.5068   45.7466   53.4436 C   0  0  0  0  0  0  0  0  0  0  0  0
    9.7423   47.3291   52.5189 H   0  0  0  0  0  0  0  0  0  0  0  0
    9.8336   48.9914   53.1935 H   0  0  0  0  0  0  0  0  0  0  0  0
    9.5690   47.5914   54.2875 H   0  0  0  0  0  0  0  0  0  0  0  0
    5.8996   48.1529   51.6503 H   0  0  0  0  0  0  0  0  0  0  0  0
    4.4352   46.2174   51.0976 H   0  0  0  0  0  0  0  0  0  0  0  0
    0.9370   41.6822   52.8230 H   0  0  0  0  0  0  0  0  0  0  0  0
    1.0437   45.2125   52.7737 H   0  0  0  0  0  0  0  0  0  0  0  0
   -0.1684   46.6477   54.4034 H   0  0  0  0  0  0  0  0  0  0  0  0
   -1.1284   45.6597   56.4800 H   0  0  0  0  0  0  0  0  0  0  0  0
   -0.8645   43.2192   56.9223 H   0  0  0  0  0  0  0  0  0  0  0  0
    0.3467   41.7821   55.2940 H   0  0  0  0  0  0  0  0  0  0  0  0
    2.3977   40.8536   51.4383 H   0  0  0  0  0  0  0  0  0  0  0  0
    6.9078   43.6677   53.5642 H   0  0  0  0  0  0  0  0  0  0  0  0
    8.3704   45.6111   54.1113 H   0  0  0  0  0  0  0  0  0  0  0  0
  1  2  1  0
  2  3  1  0
  3  4  2  0
  4  5  1  0
  5  6  2  0
  6  7  1  0
  7  8  1  0
  8  9  2  0
  9 10  1  0
 10 11  1  0
 11 12  2  0
 12 13  1  0
 13 14  2  0
 14 15  1  0
 15 16  2  0
  9 17  1  0
 17 18  1  0
 18 19  2  0
 18 20  1  0
 20 21  1  0
 21 22  3  0
  6 23  1  0
 23 24  2  0
 24  3  1  0
 20  7  2  0
 16 11  1  0
  1 25  1  0
  1 26  1  0
  1 27  1  0
  4 28  1  0
  5 29  1  0
 10 30  1  0
 12 31  1  0
 13 32  1  0
 14 33  1  0
 15 34  1  0
 16 35  1  0
 17 36  1  0
 23 37  1  0
 24 38  1  0
M  END
>  <meeko>  (8) 
{"is_sidechain": false}

>  <CID>  (8) 
Z442313918

>  <pose_index>  (8) 
8

>  <docking_score>  (8) 
-7.474

>  <rmsd_to_best_selected>  (8) 
1.1032363316048437

>  <MWT>  (8) 
318.33599999999973

>  <TPSA>  (8) 
90.79999999999998

>  <logP>  (8) 
3.0607800000000003

>  <HBD>  (8) 
2

>  <HBA>  (8) 
5

>  <SMILES>  (8) 
[H]c1c([H])c([H])c(N([H])c2nc(-c3c([H])c([H])c(OC([H])([H])[H])c([H])c3[H])c(C#N)c(=O)n2[H])c([H])c1[H]

$$$$
Z442313918_pose9
     RDKit          3D

 38 40  0  0  0  0  0  0  0  0999 V2000
    7.9246   48.6981   53.6428 C   0  0  0  0  0  0  0  0  0  0  0  0
    8.4466   47.7032   52.7712 O   0  0  0  0  0  0  0  0  0  0  0  0
    7.6693   46.5996   52.5576 C   0  0  0  0  0  0  0  0  0  0  0  0
    6.2936   46.8315   52.6319 C   0  0  0  0  0  0  0  0  0  0  0  0
    5.3793   45.7920   52.4356 C   0  0  0  0  0  0  0  0  0  0  0  0
    5.8351   44.4991   52.1520 C   0  0  0  0  0  0  0  0  0  0  0  0
    4.8928   43.3730   51.9487 C   0  0  0  0  0  0  0  0  0  0  0  0
    3.7026   43.4922   52.6301 N   0  0  0  0  0  0  0  0  0  0  0  0
    2.8038   42.5667   52.5318 C   0  0  0  0  0  0  0  0  0  0  0  0
    1.5838   42.5636   53.1555 N   0  0  0  0  0  0  0  0  0  0  0  0
    0.9828   43.5424   53.9723 C   0  0  0  0  0  0  0  0  0  0  0  0
    1.5798   44.7585   54.3200 C   0  0  0  0  0  0  0  0  0  0  0  0
    0.9276   45.6787   55.1482 C   0  0  0  0  0  0  0  0  0  0  0  0
   -0.3384   45.3967   55.6499 C   0  0  0  0  0  0  0  0  0  0  0  0
   -0.9519   44.1926   55.3239 C   0  0  0  0  0  0  0  0  0  0  0  0
   -0.2956   43.2760   54.4953 C   0  0  0  0  0  0  0  0  0  0  0  0
    3.0470   41.4638   51.7568 N   0  0  0  0  0  0  0  0  0  0  0  0
    4.2053   41.2638   51.0617 C   0  0  0  0  0  0  0  0  0  0  0  0
    4.3642   40.2499   50.3880 O   0  0  0  0  0  0  0  0  0  0  0  0
    5.2236   42.3212   51.1783 C   0  0  0  0  0  0  0  0  0  0  0  0
    6.4604   42.1614   50.5037 C   0  0  0  0  0  0  0  0  0  0  0  0
    7.4763   42.0114   49.9608 N   0  0  0  0  0  0  0  0  0  0  0  0
    7.2152   44.2656   52.0948 C   0  0  0  0  0  0  0  0  0  0  0  0
    8.1272   45.3104   52.2921 C   0  0  0  0  0  0  0  0  0  0  0  0
    6.8498   48.8287   53.4483 H   0  0  0  0  0  0  0  0  0  0  0  0
    8.0729   48.3852   54.6868 H   0  0  0  0  0  0  0  0  0  0  0  0
    8.4473   49.6499   53.4674 H   0  0  0  0  0  0  0  0  0  0  0  0
    5.9248   47.8451   52.8476 H   0  0  0  0  0  0  0  0  0  0  0  0
    4.2996   45.9905   52.5042 H   0  0  0  0  0  0  0  0  0  0  0  0
    0.9949   41.7565   53.0127 H   0  0  0  0  0  0  0  0  0  0  0  0
    2.5823   44.9964   53.9347 H   0  0  0  0  0  0  0  0  0  0  0  0
    1.4185   46.6294   55.4036 H   0  0  0  0  0  0  0  0  0  0  0  0
   -0.8506   46.1213   56.2999 H   0  0  0  0  0  0  0  0  0  0  0  0
   -1.9527   43.9607   55.7172 H   0  0  0  0  0  0  0  0  0  0  0  0
   -0.7905   42.3254   54.2473 H   0  0  0  0  0  0  0  0  0  0  0  0
    2.3619   40.7317   51.6640 H   0  0  0  0  0  0  0  0  0  0  0  0
    7.5870   43.2503   51.8927 H   0  0  0  0  0  0  0  0  0  0  0  0
    9.2079   45.1126   52.2372 H   0  0  0  0  0  0  0  0  0  0  0  0
  1  2  1  0
  2  3  1  0
  3  4  2  0
  4  5  1  0
  5  6  2  0
  6  7  1  0
  7  8  1  0
  8  9  2  0
  9 10  1  0
 10 11  1  0
 11 12  2  0
 12 13  1  0
 13 14  2  0
 14 15  1  0
 15 16  2  0
  9 17  1  0
 17 18  1  0
 18 19  2  0
 18 20  1  0
 20 21  1  0
 21 22  3  0
  6 23  1  0
 23 24  2  0
 24  3  1  0
 20  7  2  0
 16 11  1  0
  1 25  1  0
  1 26  1  0
  1 27  1  0
  4 28  1  0
  5 29  1  0
 10 30  1  0
 12 31  1  0
 13 32  1  0
 14 33  1  0
 15 34  1  0
 16 35  1  0
 17 36  1  0
 23 37  1  0
 24 38  1  0
M  END
>  <meeko>  (9) 
{"is_sidechain": false}

>  <CID>  (9) 
Z442313918

>  <pose_index>  (9) 
9

>  <docking_score>  (9) 
-7.365

>  <rmsd_to_best_selected>  (9) 
1.3256558160858198

>  <MWT>  (9) 
318.33599999999973

>  <TPSA>  (9) 
90.79999999999998

>  <logP>  (9) 
3.0607800000000003

>  <HBD>  (9) 
2

>  <HBA>  (9) 
5

>  <SMILES>  (9) 
[H]c1c([H])c([H])c(N([H])c2nc(-c3c([H])c([H])c(OC([H])([H])[H])c([H])c3[H])c(C#N)c(=O)n2[H])c([H])c1[H]

$$$$
Z442313918_pose10
     RDKit          3D

 38 40  0  0  0  0  0  0  0  0999 V2000
    9.0481   48.1232   53.6747 C   0  0  0  0  0  0  0  0  0  0  0  0
    7.9733   48.1483   52.7440 O   0  0  0  0  0  0  0  0  0  0  0  0
    7.2875   46.9786   52.5622 C   0  0  0  0  0  0  0  0  0  0  0  0
    5.9046   47.1269   52.4333 C   0  0  0  0  0  0  0  0  0  0  0  0
    5.0787   46.0153   52.2432 C   0  0  0  0  0  0  0  0  0  0  0  0
    5.6336   44.7319   52.1692 C   0  0  0  0  0  0  0  0  0  0  0  0
    4.7866   43.5308   51.9793 C   0  0  0  0  0  0  0  0  0  0  0  0
    3.5739   43.5763   52.6307 N   0  0  0  0  0  0  0  0  0  0  0  0
    2.7522   42.5813   52.5403 C   0  0  0  0  0  0  0  0  0  0  0  0
    1.5209   42.5011   53.1363 N   0  0  0  0  0  0  0  0  0  0  0  0
    0.8265   43.4534   53.9098 C   0  0  0  0  0  0  0  0  0  0  0  0
    0.9288   44.8376   53.7390 C   0  0  0  0  0  0  0  0  0  0  0  0
    0.2183   45.7253   54.5568 C   0  0  0  0  0  0  0  0  0  0  0  0
   -0.6065   45.2426   55.5656 C   0  0  0  0  0  0  0  0  0  0  0  0
   -0.7218   43.8710   55.7600 C   0  0  0  0  0  0  0  0  0  0  0  0
   -0.0111   42.9880   54.9401 C   0  0  0  0  0  0  0  0  0  0  0  0
    3.0972   41.4796   51.8030 N   0  0  0  0  0  0  0  0  0  0  0  0
    4.2836   41.3502   51.1394 C   0  0  0  0  0  0  0  0  0  0  0  0
    4.5362   40.3337   50.4995 O   0  0  0  0  0  0  0  0  0  0  0  0
    5.2151   42.4866   51.2472 C   0  0  0  0  0  0  0  0  0  0  0  0
    6.4770   42.4037   50.6055 C   0  0  0  0  0  0  0  0  0  0  0  0
    7.5008   42.3267   50.0623 N   0  0  0  0  0  0  0  0  0  0  0  0
    7.0195   44.5844   52.3152 C   0  0  0  0  0  0  0  0  0  0  0  0
    7.8428   45.7015   52.5062 C   0  0  0  0  0  0  0  0  0  0  0  0
    9.4840   49.1296   53.7587 H   0  0  0  0  0  0  0  0  0  0  0  0
    8.6740   47.8024   54.6582 H   0  0  0  0  0  0  0  0  0  0  0  0
    9.8176   47.4181   53.3273 H   0  0  0  0  0  0  0  0  0  0  0  0
    5.4596   48.1317   52.4820 H   0  0  0  0  0  0  0  0  0  0  0  0
    3.9907   46.1491   52.1516 H   0  0  0  0  0  0  0  0  0  0  0  0
    0.9996   41.6485   53.0036 H   0  0  0  0  0  0  0  0  0  0  0  0
    1.5798   45.2368   52.9472 H   0  0  0  0  0  0  0  0  0  0  0  0
    0.3137   46.8098   54.3998 H   0  0  0  0  0  0  0  0  0  0  0  0
   -1.1646   45.9413   56.2061 H   0  0  0  0  0  0  0  0  0  0  0  0
   -1.3709   43.4805   56.5575 H   0  0  0  0  0  0  0  0  0  0  0  0
   -0.1094   41.9048   55.1046 H   0  0  0  0  0  0  0  0  0  0  0  0
    2.4725   40.6941   51.7160 H   0  0  0  0  0  0  0  0  0  0  0  0
    7.4661   43.5798   52.2794 H   0  0  0  0  0  0  0  0  0  0  0  0
    8.9298   45.5705   52.6123 H   0  0  0  0  0  0  0  0  0  0  0  0
  1  2  1  0
  2  3  1  0
  3  4  2  0
  4  5  1  0
  5  6  2  0
  6  7  1  0
  7  8  1  0
  8  9  2  0
  9 10  1  0
 10 11  1  0
 11 12  2  0
 12 13  1  0
 13 14  2  0
 14 15  1  0
 15 16  2  0
  9 17  1  0
 17 18  1  0
 18 19  2  0
 18 20  1  0
 20 21  1  0
 21 22  3  0
  6 23  1  0
 23 24  2  0
 24  3  1  0
 20  7  2  0
 16 11  1  0
  1 25  1  0
  1 26  1  0
  1 27  1  0
  4 28  1  0
  5 29  1  0
 10 30  1  0
 12 31  1  0
 13 32  1  0
 14 33  1  0
 15 34  1  0
 16 35  1  0
 17 36  1  0
 23 37  1  0
 24 38  1  0
M  END
>  <meeko>  (10) 
{"is_sidechain": false}

>  <CID>  (10) 
Z442313918

>  <pose_index>  (10) 
10

>  <docking_score>  (10) 
-7.232

>  <rmsd_to_best_selected>  (10) 
1.3148590698188762

>  <MWT>  (10) 
318.33599999999973

>  <TPSA>  (10) 
90.79999999999998

>  <logP>  (10) 
3.0607800000000003

>  <HBD>  (10) 
2

>  <HBA>  (10) 
5

>  <SMILES>  (10) 
[H]c1c([H])c([H])c(N([H])c2nc(-c3c([H])c([H])c(OC([H])([H])[H])c([H])c3[H])c(C#N)c(=O)n2[H])c([H])c1[H]

$$$$
