Z56854611_pose1
     RDKit          3D

 44 47  0  0  0  0  0  0  0  0999 V2000
   10.6800   47.7280   55.7170 C   0  0  0  0  0  0  0  0  0  0  0  0
    9.7760   47.3180   54.5930 C   0  0  0  0  0  0  0  0  0  0  0  0
    8.3960   47.5000   54.6870 C   0  0  0  0  0  0  0  0  0  0  0  0
    7.5610   47.1440   53.6220 C   0  0  0  0  0  0  0  0  0  0  0  0
    8.0780   46.6150   52.4290 C   0  0  0  0  0  0  0  0  0  0  0  0
    7.1860   46.2490   51.4170 N   0  0  0  0  0  0  0  0  0  0  0  0
    6.2970   45.1930   51.2390 C   0  0  0  0  0  0  0  0  0  0  0  0
    5.1540   45.1030   51.9290 N   0  0  0  0  0  0  0  0  0  0  0  0
    4.3390   44.0600   51.6830 C   0  0  0  0  0  0  0  0  0  0  0  0
    3.0950   43.9940   52.3690 N   0  0  0  0  0  0  0  0  0  0  0  0
    2.0690   44.7260   51.5790 C   0  0  0  0  0  0  0  0  0  0  0  0
    0.9000   45.1450   52.4840 C   0  0  0  0  0  0  0  0  0  0  0  0
    1.2860   46.0500   53.5300 O   0  0  0  0  0  0  0  0  0  0  0  0
    2.6650   45.9090   53.9170 C   0  0  0  0  0  0  0  0  0  0  0  0
    3.1790   44.4690   53.7730 C   0  0  0  0  0  0  0  0  0  0  0  0
    4.6670   43.0650   50.7470 C   0  0  0  0  0  0  0  0  0  0  0  0
    3.8870   41.9140   50.4660 C   0  0  0  0  0  0  0  0  0  0  0  0
    4.2980   40.9850   49.5140 C   0  0  0  0  0  0  0  0  0  0  0  0
    5.4920   41.1910   48.8380 C   0  0  0  0  0  0  0  0  0  0  0  0
    6.2660   42.3190   49.1270 C   0  0  0  0  0  0  0  0  0  0  0  0
    5.8750   43.2580   50.0750 C   0  0  0  0  0  0  0  0  0  0  0  0
    6.6720   44.3060   50.3080 N   0  0  0  0  0  0  0  0  0  0  0  0
    9.4620   46.4430   52.3470 C   0  0  0  0  0  0  0  0  0  0  0  0
   10.3040   46.7970   53.4090 C   0  0  0  0  0  0  0  0  0  0  0  0
   10.1931   47.5072   56.6783 H   0  0  0  0  0  0  0  0  0  0  0  0
   11.6260   47.1708   55.6486 H   0  0  0  0  0  0  0  0  0  0  0  0
   10.8840   48.8067   55.6486 H   0  0  0  0  0  0  0  0  0  0  0  0
    7.9618   47.9258   55.6036 H   0  0  0  0  0  0  0  0  0  0  0  0
    6.4743   47.2819   53.7220 H   0  0  0  0  0  0  0  0  0  0  0  0
    7.2150   46.7940   50.5680 H   0  0  0  0  0  0  0  0  0  0  0  0
    2.5245   45.6236   51.1353 H   0  0  0  0  0  0  0  0  0  0  0  0
    1.6891   44.0656   50.7855 H   0  0  0  0  0  0  0  0  0  0  0  0
    0.1361   45.6353   51.8627 H   0  0  0  0  0  0  0  0  0  0  0  0
    0.5195   44.2329   52.9670 H   0  0  0  0  0  0  0  0  0  0  0  0
    3.2773   46.5660   53.2818 H   0  0  0  0  0  0  0  0  0  0  0  0
    2.7406   46.1830   54.9796 H   0  0  0  0  0  0  0  0  0  0  0  0
    4.2285   44.4307   54.1001 H   0  0  0  0  0  0  0  0  0  0  0  0
    2.5484   43.8160   54.3943 H   0  0  0  0  0  0  0  0  0  0  0  0
    2.9436   41.7531   51.0082 H   0  0  0  0  0  0  0  0  0  0  0  0
    3.6834   40.0981   49.3003 H   0  0  0  0  0  0  0  0  0  0  0  0
    5.8282   40.4702   48.0781 H   0  0  0  0  0  0  0  0  0  0  0  0
    7.2132   42.4681   48.5879 H   0  0  0  0  0  0  0  0  0  0  0  0
    9.8993   46.0211   51.4301 H   0  0  0  0  0  0  0  0  0  0  0  0
   11.3914   46.6635   53.3099 H   0  0  0  0  0  0  0  0  0  0  0  0
  1  2  1  0
  2  3  2  0
  3  4  1  0
  4  5  2  0
  5  6  1  0
  6  7  1  0
  7  8  2  0
  8  9  1  0
  9 10  1  0
 10 11  1  0
 11 12  1  0
 12 13  1  0
 13 14  1  0
 14 15  1  0
  9 16  2  0
 16 17  1  0
 17 18  2  0
 18 19  1  0
 19 20  2  0
 20 21  1  0
 21 22  2  0
  5 23  1  0
 23 24  2  0
 24  2  1  0
 22  7  1  0
 15 10  1  0
 21 16  1  0
  1 25  1  0
  1 26  1  0
  1 27  1  0
  3 28  1  0
  4 29  1  0
  6 30  1  0
 11 31  1  0
 11 32  1  0
 12 33  1  0
 12 34  1  0
 14 35  1  0
 14 36  1  0
 15 37  1  0
 15 38  1  0
 17 39  1  0
 18 40  1  0
 19 41  1  0
 20 42  1  0
 23 43  1  0
 24 44  1  0
M  END
>  <meeko>  (1) 
{"is_sidechain": false}

>  <CID>  (1) 
Z56854611

>  <pose_index>  (1) 
1

>  <docking_score>  (1) 
-9.877

>  <rmsd_to_best_selected>  (1) 
0.0

>  <MWT>  (1) 
320.3959999999997

>  <TPSA>  (1) 
50.28

>  <logP>  (1) 
3.5184200000000025

>  <HBD>  (1) 
1

>  <HBA>  (1) 
5

>  <SMILES>  (1) 
[H]c1c([H])c(C([H])([H])[H])c([H])c([H])c1N([H])c1nc(N2C([H])([H])C([H])([H])OC([H])([H])C2([H])[H])c2c([H])c([H])c([H])c([H])c2n1

$$$$
Z56854611_pose2
     RDKit          3D

 44 47  0  0  0  0  0  0  0  0999 V2000
   10.0952   48.1435   55.7424 C   0  0  0  0  0  0  0  0  0  0  0  0
    9.3873   47.5656   54.5537 C   0  0  0  0  0  0  0  0  0  0  0  0
    8.0646   47.9131   54.2738 C   0  0  0  0  0  0  0  0  0  0  0  0
    7.4196   47.3941   53.1457 C   0  0  0  0  0  0  0  0  0  0  0  0
    8.0776   46.5298   52.2574 C   0  0  0  0  0  0  0  0  0  0  0  0
    7.3645   46.0206   51.1668 N   0  0  0  0  0  0  0  0  0  0  0  0
    6.3993   45.0305   51.0146 C   0  0  0  0  0  0  0  0  0  0  0  0
    5.2291   45.0721   51.6626 N   0  0  0  0  0  0  0  0  0  0  0  0
    4.3403   44.0844   51.4429 C   0  0  0  0  0  0  0  0  0  0  0  0
    3.0725   44.1582   52.0809 N   0  0  0  0  0  0  0  0  0  0  0  0
    2.4831   45.5015   51.8314 C   0  0  0  0  0  0  0  0  0  0  0  0
    1.4245   45.8245   52.8976 C   0  0  0  0  0  0  0  0  0  0  0  0
    1.9595   45.8894   54.2287 O   0  0  0  0  0  0  0  0  0  0  0  0
    3.1361   45.0794   54.4033 C   0  0  0  0  0  0  0  0  0  0  0  0
    3.1284   43.8195   53.5252 C   0  0  0  0  0  0  0  0  0  0  0  0
    4.6203   43.0131   50.5780 C   0  0  0  0  0  0  0  0  0  0  0  0
    3.7587   41.9130   50.3322 C   0  0  0  0  0  0  0  0  0  0  0  0
    4.1256   40.8985   49.4512 C   0  0  0  0  0  0  0  0  0  0  0  0
    5.3558   40.9689   48.8122 C   0  0  0  0  0  0  0  0  0  0  0  0
    6.2085   42.0475   49.0681 C   0  0  0  0  0  0  0  0  0  0  0  0
    5.8627   43.0683   49.9460 C   0  0  0  0  0  0  0  0  0  0  0  0
    6.7324   44.0621   50.1502 N   0  0  0  0  0  0  0  0  0  0  0  0
    9.4023   46.1953   52.5461 C   0  0  0  0  0  0  0  0  0  0  0  0
   10.0550   46.7103   53.6729 C   0  0  0  0  0  0  0  0  0  0  0  0
    9.8422   49.2098   55.8371 H   0  0  0  0  0  0  0  0  0  0  0  0
    9.7808   47.6099   56.6515 H   0  0  0  0  0  0  0  0  0  0  0  0
   11.1818   48.0347   55.6106 H   0  0  0  0  0  0  0  0  0  0  0  0
    7.5261   48.5992   54.9441 H   0  0  0  0  0  0  0  0  0  0  0  0
    6.3728   47.6700   52.9508 H   0  0  0  0  0  0  0  0  0  0  0  0
    7.6323   46.3557   50.2531 H   0  0  0  0  0  0  0  0  0  0  0  0
    3.2791   46.2598   51.8687 H   0  0  0  0  0  0  0  0  0  0  0  0
    2.0062   45.5050   50.8402 H   0  0  0  0  0  0  0  0  0  0  0  0
    0.9711   46.7971   52.6558 H   0  0  0  0  0  0  0  0  0  0  0  0
    0.6874   45.0081   52.8824 H   0  0  0  0  0  0  0  0  0  0  0  0
    4.0191   45.6823   54.1448 H   0  0  0  0  0  0  0  0  0  0  0  0
    3.1587   44.7509   55.4529 H   0  0  0  0  0  0  0  0  0  0  0  0
    4.0443   43.2427   53.7211 H   0  0  0  0  0  0  0  0  0  0  0  0
    2.2323   43.2325   53.7751 H   0  0  0  0  0  0  0  0  0  0  0  0
    2.7868   41.8606   50.8447 H   0  0  0  0  0  0  0  0  0  0  0  0
    3.4487   40.0518   49.2642 H   0  0  0  0  0  0  0  0  0  0  0  0
    5.6586   40.1801   48.1079 H   0  0  0  0  0  0  0  0  0  0  0  0
    7.1827   42.0894   48.5591 H   0  0  0  0  0  0  0  0  0  0  0  0
    9.9442   45.5131   51.8745 H   0  0  0  0  0  0  0  0  0  0  0  0
   11.1032   46.4390   53.8666 H   0  0  0  0  0  0  0  0  0  0  0  0
  1  2  1  0
  2  3  2  0
  3  4  1  0
  4  5  2  0
  5  6  1  0
  6  7  1  0
  7  8  2  0
  8  9  1  0
  9 10  1  0
 10 11  1  0
 11 12  1  0
 12 13  1  0
 13 14  1  0
 14 15  1  0
  9 16  2  0
 16 17  1  0
 17 18  2  0
 18 19  1  0
 19 20  2  0
 20 21  1  0
 21 22  2  0
  5 23  1  0
 23 24  2  0
 24  2  1  0
 22  7  1  0
 15 10  1  0
 21 16  1  0
  1 25  1  0
  1 26  1  0
  1 27  1  0
  3 28  1  0
  4 29  1  0
  6 30  1  0
 11 31  1  0
 11 32  1  0
 12 33  1  0
 12 34  1  0
 14 35  1  0
 14 36  1  0
 15 37  1  0
 15 38  1  0
 17 39  1  0
 18 40  1  0
 19 41  1  0
 20 42  1  0
 23 43  1  0
 24 44  1  0
M  END
>  <meeko>  (2) 
{"is_sidechain": false}

>  <CID>  (2) 
Z56854611

>  <pose_index>  (2) 
2

>  <docking_score>  (2) 
-9.229

>  <rmsd_to_best_selected>  (2) 
0.7822147525121165

>  <MWT>  (2) 
320.3959999999997

>  <TPSA>  (2) 
50.28

>  <logP>  (2) 
3.5184200000000025

>  <HBD>  (2) 
1

>  <HBA>  (2) 
5

>  <SMILES>  (2) 
[H]c1c([H])c(C([H])([H])[H])c([H])c([H])c1N([H])c1nc(N2C([H])([H])C([H])([H])OC([H])([H])C2([H])[H])c2c([H])c([H])c([H])c([H])c2n1

$$$$
Z56854611_pose3
     RDKit          3D

 44 47  0  0  0  0  0  0  0  0999 V2000
    9.4743   49.4666   54.7332 C   0  0  0  0  0  0  0  0  0  0  0  0
    9.0918   48.1559   54.1127 C   0  0  0  0  0  0  0  0  0  0  0  0
    7.7865   47.9306   53.6729 C   0  0  0  0  0  0  0  0  0  0  0  0
    7.4442   46.7164   53.0663 C   0  0  0  0  0  0  0  0  0  0  0  0
    8.3933   45.7023   52.8669 C   0  0  0  0  0  0  0  0  0  0  0  0
    7.9768   44.5020   52.2848 N   0  0  0  0  0  0  0  0  0  0  0  0
    6.7868   44.0580   51.7153 C   0  0  0  0  0  0  0  0  0  0  0  0
    5.5917   44.4003   52.2095 N   0  0  0  0  0  0  0  0  0  0  0  0
    4.4880   43.9455   51.5870 C   0  0  0  0  0  0  0  0  0  0  0  0
    3.2165   44.3580   52.0717 N   0  0  0  0  0  0  0  0  0  0  0  0
    3.2889   45.7934   52.4551 C   0  0  0  0  0  0  0  0  0  0  0  0
    2.1684   46.1348   53.4513 C   0  0  0  0  0  0  0  0  0  0  0  0
    2.2661   45.4094   54.6868 O   0  0  0  0  0  0  0  0  0  0  0  0
    2.9346   44.1425   54.5457 C   0  0  0  0  0  0  0  0  0  0  0  0
    2.7075   43.4995   53.1701 C   0  0  0  0  0  0  0  0  0  0  0  0
    4.5619   43.1120   50.4584 C   0  0  0  0  0  0  0  0  0  0  0  0
    3.4496   42.5550   49.7761 C   0  0  0  0  0  0  0  0  0  0  0  0
    3.6278   41.7399   48.6612 C   0  0  0  0  0  0  0  0  0  0  0  0
    4.9145   41.4707   48.2175 C   0  0  0  0  0  0  0  0  0  0  0  0
    6.0091   42.0100   48.8995 C   0  0  0  0  0  0  0  0  0  0  0  0
    5.8541   42.8227   50.0174 C   0  0  0  0  0  0  0  0  0  0  0  0
    6.9471   43.2940   50.6266 N   0  0  0  0  0  0  0  0  0  0  0  0
    9.6964   45.9446   53.3072 C   0  0  0  0  0  0  0  0  0  0  0  0
   10.0476   47.1570   53.9143 C   0  0  0  0  0  0  0  0  0  0  0  0
    8.7626   50.2435   54.4170 H   0  0  0  0  0  0  0  0  0  0  0  0
    9.4527   49.3737   55.8291 H   0  0  0  0  0  0  0  0  0  0  0  0
   10.4880   49.7441   54.4086 H   0  0  0  0  0  0  0  0  0  0  0  0
    7.0227   48.7113   53.8037 H   0  0  0  0  0  0  0  0  0  0  0  0
    6.4070   46.5534   52.7383 H   0  0  0  0  0  0  0  0  0  0  0  0
    8.6187   43.7241   52.3414 H   0  0  0  0  0  0  0  0  0  0  0  0
    4.2642   45.9958   52.9220 H   0  0  0  0  0  0  0  0  0  0  0  0
    3.1681   46.4119   51.5536 H   0  0  0  0  0  0  0  0  0  0  0  0
    2.2151   47.2111   53.6738 H   0  0  0  0  0  0  0  0  0  0  0  0
    1.2160   45.8498   52.9806 H   0  0  0  0  0  0  0  0  0  0  0  0
    4.0145   44.2974   54.6872 H   0  0  0  0  0  0  0  0  0  0  0  0
    2.5172   43.4619   55.3023 H   0  0  0  0  0  0  0  0  0  0  0  0
    3.2304   42.5323   53.1380 H   0  0  0  0  0  0  0  0  0  0  0  0
    1.6247   43.3673   53.0281 H   0  0  0  0  0  0  0  0  0  0  0  0
    2.4316   42.7702   50.1330 H   0  0  0  0  0  0  0  0  0  0  0  0
    2.7585   41.3145   48.1384 H   0  0  0  0  0  0  0  0  0  0  0  0
    5.0726   40.8359   47.3332 H   0  0  0  0  0  0  0  0  0  0  0  0
    7.0243   41.7845   48.5410 H   0  0  0  0  0  0  0  0  0  0  0  0
   10.4630   45.1670   53.1744 H   0  0  0  0  0  0  0  0  0  0  0  0
   11.0857   47.3240   54.2377 H   0  0  0  0  0  0  0  0  0  0  0  0
  1  2  1  0
  2  3  2  0
  3  4  1  0
  4  5  2  0
  5  6  1  0
  6  7  1  0
  7  8  2  0
  8  9  1  0
  9 10  1  0
 10 11  1  0
 11 12  1  0
 12 13  1  0
 13 14  1  0
 14 15  1  0
  9 16  2  0
 16 17  1  0
 17 18  2  0
 18 19  1  0
 19 20  2  0
 20 21  1  0
 21 22  2  0
  5 23  1  0
 23 24  2  0
 24  2  1  0
 22  7  1  0
 15 10  1  0
 21 16  1  0
  1 25  1  0
  1 26  1  0
  1 27  1  0
  3 28  1  0
  4 29  1  0
  6 30  1  0
 11 31  1  0
 11 32  1  0
 12 33  1  0
 12 34  1  0
 14 35  1  0
 14 36  1  0
 15 37  1  0
 15 38  1  0
 17 39  1  0
 18 40  1  0
 19 41  1  0
 20 42  1  0
 23 43  1  0
 24 44  1  0
M  END
>  <meeko>  (3) 
{"is_sidechain": false}

>  <CID>  (3) 
Z56854611

>  <pose_index>  (3) 
3

>  <docking_score>  (3) 
-8.945

>  <rmsd_to_best_selected>  (3) 
1.8212219529546094

>  <MWT>  (3) 
320.3959999999997

>  <TPSA>  (3) 
50.28

>  <logP>  (3) 
3.5184200000000025

>  <HBD>  (3) 
1

>  <HBA>  (3) 
5

>  <SMILES>  (3) 
[H]c1c([H])c(C([H])([H])[H])c([H])c([H])c1N([H])c1nc(N2C([H])([H])C([H])([H])OC([H])([H])C2([H])[H])c2c([H])c([H])c([H])c([H])c2n1

$$$$
Z56854611_pose4
     RDKit          3D

 44 47  0  0  0  0  0  0  0  0999 V2000
    9.5438   48.5618   55.7357 C   0  0  0  0  0  0  0  0  0  0  0  0
    9.0680   47.7444   54.5727 C   0  0  0  0  0  0  0  0  0  0  0  0
    7.9320   48.1201   53.8543 C   0  0  0  0  0  0  0  0  0  0  0  0
    7.5119   47.3690   52.7513 C   0  0  0  0  0  0  0  0  0  0  0  0
    8.2196   46.2362   52.3214 C   0  0  0  0  0  0  0  0  0  0  0  0
    7.7266   45.5121   51.2314 N   0  0  0  0  0  0  0  0  0  0  0  0
    6.6290   44.6806   51.0339 C   0  0  0  0  0  0  0  0  0  0  0  0
    5.4911   44.8296   51.7224 N   0  0  0  0  0  0  0  0  0  0  0  0
    4.4686   43.9954   51.4560 C   0  0  0  0  0  0  0  0  0  0  0  0
    3.2373   44.1909   52.1402 N   0  0  0  0  0  0  0  0  0  0  0  0
    2.7889   45.5948   51.9379 C   0  0  0  0  0  0  0  0  0  0  0  0
    1.8081   46.0042   53.0472 C   0  0  0  0  0  0  0  0  0  0  0  0
    2.3904   45.9812   54.3598 O   0  0  0  0  0  0  0  0  0  0  0  0
    3.4776   45.0460   54.4762 C   0  0  0  0  0  0  0  0  0  0  0  0
    3.3048   43.8151   53.5749 C   0  0  0  0  0  0  0  0  0  0  0  0
    4.5747   42.9707   50.5005 C   0  0  0  0  0  0  0  0  0  0  0  0
    3.5629   42.0245   50.1981 C   0  0  0  0  0  0  0  0  0  0  0  0
    3.7642   41.0448   49.2279 C   0  0  0  0  0  0  0  0  0  0  0  0
    4.9773   40.9980   48.5559 C   0  0  0  0  0  0  0  0  0  0  0  0
    5.9780   41.9233   48.8658 C   0  0  0  0  0  0  0  0  0  0  0  0
    5.7985   42.9070   49.8331 C   0  0  0  0  0  0  0  0  0  0  0  0
    6.8041   43.7505   50.0859 N   0  0  0  0  0  0  0  0  0  0  0  0
    9.3581   45.8753   53.0461 C   0  0  0  0  0  0  0  0  0  0  0  0
    9.7857   46.6211   54.1521 C   0  0  0  0  0  0  0  0  0  0  0  0
    8.8358   49.3830   55.9209 H   0  0  0  0  0  0  0  0  0  0  0  0
    9.6081   47.9244   56.6299 H   0  0  0  0  0  0  0  0  0  0  0  0
   10.5368   48.9777   55.5097 H   0  0  0  0  0  0  0  0  0  0  0  0
    7.3636   49.0119   54.1570 H   0  0  0  0  0  0  0  0  0  0  0  0
    6.6053   47.6738   52.2081 H   0  0  0  0  0  0  0  0  0  0  0  0
    8.3043   45.4889   50.4040 H   0  0  0  0  0  0  0  0  0  0  0  0
    3.6630   46.2622   51.9613 H   0  0  0  0  0  0  0  0  0  0  0  0
    2.2825   45.6729   50.9646 H   0  0  0  0  0  0  0  0  0  0  0  0
    1.4542   47.0250   52.8406 H   0  0  0  0  0  0  0  0  0  0  0  0
    0.9880   45.2712   53.0427 H   0  0  0  0  0  0  0  0  0  0  0  0
    4.4114   45.5566   54.1981 H   0  0  0  0  0  0  0  0  0  0  0  0
    3.4994   44.6926   55.5177 H   0  0  0  0  0  0  0  0  0  0  0  0
    4.1594   43.1393   53.7266 H   0  0  0  0  0  0  0  0  0  0  0  0
    2.3596   43.3217   53.8453 H   0  0  0  0  0  0  0  0  0  0  0  0
    2.6050   42.0644   50.7373 H   0  0  0  0  0  0  0  0  0  0  0  0
    2.9714   40.3178   48.9976 H   0  0  0  0  0  0  0  0  0  0  0  0
    5.1507   40.2356   47.7823 H   0  0  0  0  0  0  0  0  0  0  0  0
    6.9365   41.8721   48.3286 H   0  0  0  0  0  0  0  0  0  0  0  0
    9.9309   44.9869   52.7418 H   0  0  0  0  0  0  0  0  0  0  0  0
   10.6942   46.3201   54.6944 H   0  0  0  0  0  0  0  0  0  0  0  0
  1  2  1  0
  2  3  2  0
  3  4  1  0
  4  5  2  0
  5  6  1  0
  6  7  1  0
  7  8  2  0
  8  9  1  0
  9 10  1  0
 10 11  1  0
 11 12  1  0
 12 13  1  0
 13 14  1  0
 14 15  1  0
  9 16  2  0
 16 17  1  0
 17 18  2  0
 18 19  1  0
 19 20  2  0
 20 21  1  0
 21 22  2  0
  5 23  1  0
 23 24  2  0
 24  2  1  0
 22  7  1  0
 15 10  1  0
 21 16  1  0
  1 25  1  0
  1 26  1  0
  1 27  1  0
  3 28  1  0
  4 29  1  0
  6 30  1  0
 11 31  1  0
 11 32  1  0
 12 33  1  0
 12 34  1  0
 14 35  1  0
 14 36  1  0
 15 37  1  0
 15 38  1  0
 17 39  1  0
 18 40  1  0
 19 41  1  0
 20 42  1  0
 23 43  1  0
 24 44  1  0
M  END
>  <meeko>  (4) 
{"is_sidechain": false}

>  <CID>  (4) 
Z56854611

>  <pose_index>  (4) 
4

>  <docking_score>  (4) 
-8.846

>  <rmsd_to_best_selected>  (4) 
1.1973722203178632

>  <MWT>  (4) 
320.3959999999997

>  <TPSA>  (4) 
50.28

>  <logP>  (4) 
3.5184200000000025

>  <HBD>  (4) 
1

>  <HBA>  (4) 
5

>  <SMILES>  (4) 
[H]c1c([H])c(C([H])([H])[H])c([H])c([H])c1N([H])c1nc(N2C([H])([H])C([H])([H])OC([H])([H])C2([H])[H])c2c([H])c([H])c([H])c([H])c2n1

$$$$
Z56854611_pose5
     RDKit          3D

 44 47  0  0  0  0  0  0  0  0999 V2000
   10.3995   48.0191   55.7110 C   0  0  0  0  0  0  0  0  0  0  0  0
    9.5712   47.5044   54.5728 C   0  0  0  0  0  0  0  0  0  0  0  0
    8.5852   48.3024   53.9905 C   0  0  0  0  0  0  0  0  0  0  0  0
    7.8374   47.8265   52.9080 C   0  0  0  0  0  0  0  0  0  0  0  0
    8.0613   46.5532   52.3641 C   0  0  0  0  0  0  0  0  0  0  0  0
    7.2558   46.1268   51.3042 N   0  0  0  0  0  0  0  0  0  0  0  0
    6.3386   45.0933   51.1342 C   0  0  0  0  0  0  0  0  0  0  0  0
    5.1963   45.0369   51.8290 N   0  0  0  0  0  0  0  0  0  0  0  0
    4.3530   44.0149   51.5899 C   0  0  0  0  0  0  0  0  0  0  0  0
    3.1102   43.9855   52.2803 N   0  0  0  0  0  0  0  0  0  0  0  0
    2.2019   45.0013   51.6839 C   0  0  0  0  0  0  0  0  0  0  0  0
    1.1020   45.3846   52.6865 C   0  0  0  0  0  0  0  0  0  0  0  0
    1.6110   45.9926   53.8839 O   0  0  0  0  0  0  0  0  0  0  0  0
    2.9533   45.5815   54.1968 C   0  0  0  0  0  0  0  0  0  0  0  0
    3.2572   44.1443   53.7490 C   0  0  0  0  0  0  0  0  0  0  0  0
    4.6512   43.0073   50.6573 C   0  0  0  0  0  0  0  0  0  0  0  0
    3.8401   41.8765   50.3848 C   0  0  0  0  0  0  0  0  0  0  0  0
    4.2233   40.9314   49.4364 C   0  0  0  0  0  0  0  0  0  0  0  0
    5.4194   41.1038   48.7541 C   0  0  0  0  0  0  0  0  0  0  0  0
    6.2243   42.2120   49.0354 C   0  0  0  0  0  0  0  0  0  0  0  0
    5.8618   43.1643   49.9811 C   0  0  0  0  0  0  0  0  0  0  0  0
    6.6867   44.1924   50.2057 N   0  0  0  0  0  0  0  0  0  0  0  0
    9.0558   45.7670   52.9525 C   0  0  0  0  0  0  0  0  0  0  0  0
    9.8082   46.2362   54.0367 C   0  0  0  0  0  0  0  0  0  0  0  0
   10.0823   49.0420   55.9622 H   0  0  0  0  0  0  0  0  0  0  0  0
   10.2640   47.3677   56.5870 H   0  0  0  0  0  0  0  0  0  0  0  0
   11.4601   48.0253   55.4193 H   0  0  0  0  0  0  0  0  0  0  0  0
    8.3950   49.3115   54.3850 H   0  0  0  0  0  0  0  0  0  0  0  0
    7.0552   48.4662   52.4732 H   0  0  0  0  0  0  0  0  0  0  0  0
    7.3943   46.5858   50.4152 H   0  0  0  0  0  0  0  0  0  0  0  0
    2.7823   45.8979   51.4211 H   0  0  0  0  0  0  0  0  0  0  0  0
    1.7340   44.5788   50.7824 H   0  0  0  0  0  0  0  0  0  0  0  0
    0.4170   46.0938   52.1989 H   0  0  0  0  0  0  0  0  0  0  0  0
    0.5942   44.4552   52.9837 H   0  0  0  0  0  0  0  0  0  0  0  0
    3.6554   46.2621   53.6929 H   0  0  0  0  0  0  0  0  0  0  0  0
    3.0632   45.6170   55.2907 H   0  0  0  0  0  0  0  0  0  0  0  0
    4.2895   43.8927   54.0335 H   0  0  0  0  0  0  0  0  0  0  0  0
    2.5386   43.4721   54.2408 H   0  0  0  0  0  0  0  0  0  0  0  0
    2.8943   41.7438   50.9306 H   0  0  0  0  0  0  0  0  0  0  0  0
    3.5858   40.0590   49.2306 H   0  0  0  0  0  0  0  0  0  0  0  0
    5.7330   40.3718   47.9953 H   0  0  0  0  0  0  0  0  0  0  0  0
    7.1729   42.3340   48.4920 H   0  0  0  0  0  0  0  0  0  0  0  0
    9.2516   44.7597   52.5563 H   0  0  0  0  0  0  0  0  0  0  0  0
   10.5936   45.5998   54.4704 H   0  0  0  0  0  0  0  0  0  0  0  0
  1  2  1  0
  2  3  2  0
  3  4  1  0
  4  5  2  0
  5  6  1  0
  6  7  1  0
  7  8  2  0
  8  9  1  0
  9 10  1  0
 10 11  1  0
 11 12  1  0
 12 13  1  0
 13 14  1  0
 14 15  1  0
  9 16  2  0
 16 17  1  0
 17 18  2  0
 18 19  1  0
 19 20  2  0
 20 21  1  0
 21 22  2  0
  5 23  1  0
 23 24  2  0
 24  2  1  0
 22  7  1  0
 15 10  1  0
 21 16  1  0
  1 25  1  0
  1 26  1  0
  1 27  1  0
  3 28  1  0
  4 29  1  0
  6 30  1  0
 11 31  1  0
 11 32  1  0
 12 33  1  0
 12 34  1  0
 14 35  1  0
 14 36  1  0
 15 37  1  0
 15 38  1  0
 17 39  1  0
 18 40  1  0
 19 41  1  0
 20 42  1  0
 23 43  1  0
 24 44  1  0
M  END
>  <meeko>  (5) 
{"is_sidechain": false}

>  <CID>  (5) 
Z56854611

>  <pose_index>  (5) 
5

>  <docking_score>  (5) 
-8.747

>  <rmsd_to_best_selected>  (5) 
0.7156077417979942

>  <MWT>  (5) 
320.3959999999997

>  <TPSA>  (5) 
50.28

>  <logP>  (5) 
3.5184200000000025

>  <HBD>  (5) 
1

>  <HBA>  (5) 
5

>  <SMILES>  (5) 
[H]c1c([H])c(C([H])([H])[H])c([H])c([H])c1N([H])c1nc(N2C([H])([H])C([H])([H])OC([H])([H])C2([H])[H])c2c([H])c([H])c([H])c([H])c2n1

$$$$
Z56854611_pose7
     RDKit          3D

 44 47  0  0  0  0  0  0  0  0999 V2000
    9.3631   49.2485   54.9530 C   0  0  0  0  0  0  0  0  0  0  0  0
    9.0092   47.9559   54.2822 C   0  0  0  0  0  0  0  0  0  0  0  0
    7.8168   47.8270   53.5686 C   0  0  0  0  0  0  0  0  0  0  0  0
    7.5071   46.6258   52.9196 C   0  0  0  0  0  0  0  0  0  0  0  0
    8.3817   45.5291   52.9476 C   0  0  0  0  0  0  0  0  0  0  0  0
    7.9967   44.3491   52.3065 N   0  0  0  0  0  0  0  0  0  0  0  0
    6.7937   43.8642   51.8014 C   0  0  0  0  0  0  0  0  0  0  0  0
    5.6122   44.3827   52.1607 N   0  0  0  0  0  0  0  0  0  0  0  0
    4.4957   43.8708   51.6105 C   0  0  0  0  0  0  0  0  0  0  0  0
    3.2448   44.4582   51.9414 N   0  0  0  0  0  0  0  0  0  0  0  0
    3.2655   45.8928   51.5453 C   0  0  0  0  0  0  0  0  0  0  0  0
    2.2080   46.6780   52.3374 C   0  0  0  0  0  0  0  0  0  0  0  0
    2.4413   46.6752   53.7547 O   0  0  0  0  0  0  0  0  0  0  0  0
    3.1660   45.5173   54.2045 C   0  0  0  0  0  0  0  0  0  0  0  0
    2.8701   44.2663   53.3647 C   0  0  0  0  0  0  0  0  0  0  0  0
    4.5394   42.8031   50.6967 C   0  0  0  0  0  0  0  0  0  0  0  0
    3.4085   42.1781   50.1123 C   0  0  0  0  0  0  0  0  0  0  0  0
    3.5567   41.1260   49.2117 C   0  0  0  0  0  0  0  0  0  0  0  0
    4.8317   40.6842   48.8905 C   0  0  0  0  0  0  0  0  0  0  0  0
    5.9445   41.2936   49.4797 C   0  0  0  0  0  0  0  0  0  0  0  0
    5.8184   42.3424   50.3835 C   0  0  0  0  0  0  0  0  0  0  0  0
    6.9260   42.8681   50.9159 N   0  0  0  0  0  0  0  0  0  0  0  0
    9.5744   45.6754   53.6612 C   0  0  0  0  0  0  0  0  0  0  0  0
    9.8919   46.8731   54.3135 C   0  0  0  0  0  0  0  0  0  0  0  0
    8.7561   49.3679   55.8626 H   0  0  0  0  0  0  0  0  0  0  0  0
   10.4297   49.2419   55.2222 H   0  0  0  0  0  0  0  0  0  0  0  0
    9.1634   50.0845   54.2666 H   0  0  0  0  0  0  0  0  0  0  0  0
    7.1165   48.6737   53.5157 H   0  0  0  0  0  0  0  0  0  0  0  0
    6.5554   46.5397   52.3748 H   0  0  0  0  0  0  0  0  0  0  0  0
    8.6909   43.6180   52.2456 H   0  0  0  0  0  0  0  0  0  0  0  0
    4.2608   46.3126   51.7530 H   0  0  0  0  0  0  0  0  0  0  0  0
    3.0411   45.9716   50.4713 H   0  0  0  0  0  0  0  0  0  0  0  0
    2.2106   47.7201   51.9852 H   0  0  0  0  0  0  0  0  0  0  0  0
    1.2398   46.1849   52.1657 H   0  0  0  0  0  0  0  0  0  0  0  0
    4.2432   45.7326   54.1468 H   0  0  0  0  0  0  0  0  0  0  0  0
    2.8464   45.3068   55.2359 H   0  0  0  0  0  0  0  0  0  0  0  0
    3.4419   43.4198   53.7726 H   0  0  0  0  0  0  0  0  0  0  0  0
    1.7886   44.0708   53.4107 H   0  0  0  0  0  0  0  0  0  0  0  0
    2.3995   42.5293   50.3741 H   0  0  0  0  0  0  0  0  0  0  0  0
    2.6730   40.6511   48.7605 H   0  0  0  0  0  0  0  0  0  0  0  0
    4.9671   39.8589   48.1760 H   0  0  0  0  0  0  0  0  0  0  0  0
    6.9503   40.9318   49.2199 H   0  0  0  0  0  0  0  0  0  0  0  0
   10.2786   44.8318   53.7115 H   0  0  0  0  0  0  0  0  0  0  0  0
   10.8449   46.9624   54.8555 H   0  0  0  0  0  0  0  0  0  0  0  0
  1  2  1  0
  2  3  2  0
  3  4  1  0
  4  5  2  0
  5  6  1  0
  6  7  1  0
  7  8  2  0
  8  9  1  0
  9 10  1  0
 10 11  1  0
 11 12  1  0
 12 13  1  0
 13 14  1  0
 14 15  1  0
  9 16  2  0
 16 17  1  0
 17 18  2  0
 18 19  1  0
 19 20  2  0
 20 21  1  0
 21 22  2  0
  5 23  1  0
 23 24  2  0
 24  2  1  0
 22  7  1  0
 15 10  1  0
 21 16  1  0
  1 25  1  0
  1 26  1  0
  1 27  1  0
  3 28  1  0
  4 29  1  0
  6 30  1  0
 11 31  1  0
 11 32  1  0
 12 33  1  0
 12 34  1  0
 14 35  1  0
 14 36  1  0
 15 37  1  0
 15 38  1  0
 17 39  1  0
 18 40  1  0
 19 41  1  0
 20 42  1  0
 23 43  1  0
 24 44  1  0
M  END
>  <meeko>  (6) 
{"is_sidechain": false}

>  <CID>  (6) 
Z56854611

>  <pose_index>  (6) 
7

>  <docking_score>  (6) 
-8.426

>  <rmsd_to_best_selected>  (6) 
1.5503964355968305

>  <MWT>  (6) 
320.3959999999997

>  <TPSA>  (6) 
50.28

>  <logP>  (6) 
3.5184200000000025

>  <HBD>  (6) 
1

>  <HBA>  (6) 
5

>  <SMILES>  (6) 
[H]c1c([H])c(C([H])([H])[H])c([H])c([H])c1N([H])c1nc(N2C([H])([H])C([H])([H])OC([H])([H])C2([H])[H])c2c([H])c([H])c([H])c([H])c2n1

$$$$
Z56854611_pose8
     RDKit          3D

 44 47  0  0  0  0  0  0  0  0999 V2000
   10.7517   48.9641   53.9921 C   0  0  0  0  0  0  0  0  0  0  0  0
    9.8487   47.7696   53.9071 C   0  0  0  0  0  0  0  0  0  0  0  0
   10.2621   46.6100   53.2483 C   0  0  0  0  0  0  0  0  0  0  0  0
    9.4263   45.4894   53.1990 C   0  0  0  0  0  0  0  0  0  0  0  0
    8.1666   45.4843   53.8174 C   0  0  0  0  0  0  0  0  0  0  0  0
    7.3686   44.3422   53.7021 N   0  0  0  0  0  0  0  0  0  0  0  0
    6.3931   43.9242   52.8011 C   0  0  0  0  0  0  0  0  0  0  0  0
    5.0870   44.0896   53.0412 N   0  0  0  0  0  0  0  0  0  0  0  0
    4.2089   43.6759   52.1078 C   0  0  0  0  0  0  0  0  0  0  0  0
    2.8235   43.9054   52.3311 N   0  0  0  0  0  0  0  0  0  0  0  0
    2.3114   44.8245   51.2804 C   0  0  0  0  0  0  0  0  0  0  0  0
    1.0255   45.5164   51.7595 C   0  0  0  0  0  0  0  0  0  0  0  0
    1.2208   46.3417   52.9185 O   0  0  0  0  0  0  0  0  0  0  0  0
    2.3212   45.9083   53.7388 C   0  0  0  0  0  0  0  0  0  0  0  0
    2.5280   44.3872   53.7040 C   0  0  0  0  0  0  0  0  0  0  0  0
    4.6257   43.0627   50.9147 C   0  0  0  0  0  0  0  0  0  0  0  0
    3.7641   42.5579   49.9079 C   0  0  0  0  0  0  0  0  0  0  0  0
    4.2765   41.9685   48.7546 C   0  0  0  0  0  0  0  0  0  0  0  0
    5.6520   41.8716   48.5979 C   0  0  0  0  0  0  0  0  0  0  0  0
    6.4994   42.3577   49.5985 C   0  0  0  0  0  0  0  0  0  0  0  0
    6.0077   42.9467   50.7582 C   0  0  0  0  0  0  0  0  0  0  0  0
    6.8771   43.3779   51.6777 N   0  0  0  0  0  0  0  0  0  0  0  0
    7.7691   46.6492   54.4782 C   0  0  0  0  0  0  0  0  0  0  0  0
    8.5995   47.7763   54.5316 C   0  0  0  0  0  0  0  0  0  0  0  0
   11.1645   49.1832   52.9963 H   0  0  0  0  0  0  0  0  0  0  0  0
   10.1788   49.8320   54.3506 H   0  0  0  0  0  0  0  0  0  0  0  0
   11.5739   48.7532   54.6917 H   0  0  0  0  0  0  0  0  0  0  0  0
   11.2500   46.5774   52.7656 H   0  0  0  0  0  0  0  0  0  0  0  0
    9.7646   44.5906   52.6627 H   0  0  0  0  0  0  0  0  0  0  0  0
    7.4115   43.6795   54.4635 H   0  0  0  0  0  0  0  0  0  0  0  0
    3.0739   45.5866   51.0616 H   0  0  0  0  0  0  0  0  0  0  0  0
    2.0891   44.2435   50.3733 H   0  0  0  0  0  0  0  0  0  0  0  0
    0.6434   46.1466   50.9428 H   0  0  0  0  0  0  0  0  0  0  0  0
    0.3154   44.7246   52.0400 H   0  0  0  0  0  0  0  0  0  0  0  0
    3.2397   46.3960   53.3805 H   0  0  0  0  0  0  0  0  0  0  0  0
    2.0890   46.1867   54.7774 H   0  0  0  0  0  0  0  0  0  0  0  0
    3.3699   44.1266   54.3623 H   0  0  0  0  0  0  0  0  0  0  0  0
    1.5989   43.9065   54.0439 H   0  0  0  0  0  0  0  0  0  0  0  0
    2.6746   42.6329   50.0397 H   0  0  0  0  0  0  0  0  0  0  0  0
    3.5992   41.5847   47.9775 H   0  0  0  0  0  0  0  0  0  0  0  0
    6.0739   41.4144   47.6907 H   0  0  0  0  0  0  0  0  0  0  0  0
    7.5877   42.2716   49.4641 H   0  0  0  0  0  0  0  0  0  0  0  0
    6.7840   46.6822   54.9665 H   0  0  0  0  0  0  0  0  0  0  0  0
    8.2646   48.6748   55.0705 H   0  0  0  0  0  0  0  0  0  0  0  0
  1  2  1  0
  2  3  2  0
  3  4  1  0
  4  5  2  0
  5  6  1  0
  6  7  1  0
  7  8  2  0
  8  9  1  0
  9 10  1  0
 10 11  1  0
 11 12  1  0
 12 13  1  0
 13 14  1  0
 14 15  1  0
  9 16  2  0
 16 17  1  0
 17 18  2  0
 18 19  1  0
 19 20  2  0
 20 21  1  0
 21 22  2  0
  5 23  1  0
 23 24  2  0
 24  2  1  0
 22  7  1  0
 15 10  1  0
 21 16  1  0
  1 25  1  0
  1 26  1  0
  1 27  1  0
  3 28  1  0
  4 29  1  0
  6 30  1  0
 11 31  1  0
 11 32  1  0
 12 33  1  0
 12 34  1  0
 14 35  1  0
 14 36  1  0
 15 37  1  0
 15 38  1  0
 17 39  1  0
 18 40  1  0
 19 41  1  0
 20 42  1  0
 23 43  1  0
 24 44  1  0
M  END
>  <meeko>  (7) 
{"is_sidechain": false}

>  <CID>  (7) 
Z56854611

>  <pose_index>  (7) 
8

>  <docking_score>  (7) 
-8.198

>  <rmsd_to_best_selected>  (7) 
1.4989513180782972

>  <MWT>  (7) 
320.3959999999997

>  <TPSA>  (7) 
50.28

>  <logP>  (7) 
3.5184200000000025

>  <HBD>  (7) 
1

>  <HBA>  (7) 
5

>  <SMILES>  (7) 
[H]c1c([H])c(C([H])([H])[H])c([H])c([H])c1N([H])c1nc(N2C([H])([H])C([H])([H])OC([H])([H])C2([H])[H])c2c([H])c([H])c([H])c([H])c2n1

$$$$
Z56854611_pose9
     RDKit          3D

 44 47  0  0  0  0  0  0  0  0999 V2000
   10.5051   48.9578   54.8032 C   0  0  0  0  0  0  0  0  0  0  0  0
    9.7617   47.7435   54.3339 C   0  0  0  0  0  0  0  0  0  0  0  0
   10.4457   46.5675   54.0180 C   0  0  0  0  0  0  0  0  0  0  0  0
    9.7427   45.4283   53.6106 C   0  0  0  0  0  0  0  0  0  0  0  0
    8.3425   45.4214   53.5231 C   0  0  0  0  0  0  0  0  0  0  0  0
    7.7052   44.2600   53.0779 N   0  0  0  0  0  0  0  0  0  0  0  0
    6.6194   44.0052   52.2449 C   0  0  0  0  0  0  0  0  0  0  0  0
    5.4571   44.6557   52.3729 N   0  0  0  0  0  0  0  0  0  0  0  0
    4.4622   44.3644   51.5137 C   0  0  0  0  0  0  0  0  0  0  0  0
    3.2483   45.0973   51.6067 N   0  0  0  0  0  0  0  0  0  0  0  0
    3.3549   46.0679   52.7296 C   0  0  0  0  0  0  0  0  0  0  0  0
    1.9552   46.4787   53.2119 C   0  0  0  0  0  0  0  0  0  0  0  0
    1.1878   45.3826   53.7338 O   0  0  0  0  0  0  0  0  0  0  0  0
    1.5642   44.1134   53.1703 C   0  0  0  0  0  0  0  0  0  0  0  0
    2.0508   44.2272   51.7182 C   0  0  0  0  0  0  0  0  0  0  0  0
    4.6080   43.3896   50.5122 C   0  0  0  0  0  0  0  0  0  0  0  0
    3.5956   42.9921   49.6019 C   0  0  0  0  0  0  0  0  0  0  0  0
    3.8391   42.0157   48.6399 C   0  0  0  0  0  0  0  0  0  0  0  0
    5.0922   41.4224   48.5799 C   0  0  0  0  0  0  0  0  0  0  0  0
    6.0844   41.8064   49.4872 C   0  0  0  0  0  0  0  0  0  0  0  0
    5.8611   42.7770   50.4576 C   0  0  0  0  0  0  0  0  0  0  0  0
    6.8517   43.0837   51.3001 N   0  0  0  0  0  0  0  0  0  0  0  0
    7.6712   46.6029   53.8488 C   0  0  0  0  0  0  0  0  0  0  0  0
    8.3664   47.7481   54.2573 C   0  0  0  0  0  0  0  0  0  0  0  0
   11.3931   48.6467   55.3730 H   0  0  0  0  0  0  0  0  0  0  0  0
   10.8179   49.5549   53.9339 H   0  0  0  0  0  0  0  0  0  0  0  0
    9.8498   49.5629   55.4469 H   0  0  0  0  0  0  0  0  0  0  0  0
   11.5429   46.5366   54.0900 H   0  0  0  0  0  0  0  0  0  0  0  0
   10.3013   44.5165   53.3526 H   0  0  0  0  0  0  0  0  0  0  0  0
    8.0096   43.3894   53.4879 H   0  0  0  0  0  0  0  0  0  0  0  0
    3.9035   45.6020   53.5615 H   0  0  0  0  0  0  0  0  0  0  0  0
    3.8907   46.9628   52.3802 H   0  0  0  0  0  0  0  0  0  0  0  0
    2.0669   47.2344   54.0034 H   0  0  0  0  0  0  0  0  0  0  0  0
    1.4120   46.8690   52.3385 H   0  0  0  0  0  0  0  0  0  0  0  0
    2.3735   43.6846   53.7795 H   0  0  0  0  0  0  0  0  0  0  0  0
    0.6698   43.4730   53.1704 H   0  0  0  0  0  0  0  0  0  0  0  0
    2.3041   43.2230   51.3474 H   0  0  0  0  0  0  0  0  0  0  0  0
    1.2439   44.6764   51.1205 H   0  0  0  0  0  0  0  0  0  0  0  0
    2.6028   43.4626   49.6568 H   0  0  0  0  0  0  0  0  0  0  0  0
    3.0480   41.7180   47.9360 H   0  0  0  0  0  0  0  0  0  0  0  0
    5.3040   40.6537   47.8221 H   0  0  0  0  0  0  0  0  0  0  0  0
    7.0722   41.3258   49.4316 H   0  0  0  0  0  0  0  0  0  0  0  0
    6.5737   46.6343   53.7829 H   0  0  0  0  0  0  0  0  0  0  0  0
    7.8091   48.6593   54.5202 H   0  0  0  0  0  0  0  0  0  0  0  0
  1  2  1  0
  2  3  2  0
  3  4  1  0
  4  5  2  0
  5  6  1  0
  6  7  1  0
  7  8  2  0
  8  9  1  0
  9 10  1  0
 10 11  1  0
 11 12  1  0
 12 13  1  0
 13 14  1  0
 14 15  1  0
  9 16  2  0
 16 17  1  0
 17 18  2  0
 18 19  1  0
 19 20  2  0
 20 21  1  0
 21 22  2  0
  5 23  1  0
 23 24  2  0
 24  2  1  0
 22  7  1  0
 15 10  1  0
 21 16  1  0
  1 25  1  0
  1 26  1  0
  1 27  1  0
  3 28  1  0
  4 29  1  0
  6 30  1  0
 11 31  1  0
 11 32  1  0
 12 33  1  0
 12 34  1  0
 14 35  1  0
 14 36  1  0
 15 37  1  0
 15 38  1  0
 17 39  1  0
 18 40  1  0
 19 41  1  0
 20 42  1  0
 23 43  1  0
 24 44  1  0
M  END
>  <meeko>  (8) 
{"is_sidechain": false}

>  <CID>  (8) 
Z56854611

>  <pose_index>  (8) 
9

>  <docking_score>  (8) 
-7.858

>  <rmsd_to_best_selected>  (8) 
1.6657426748625446

>  <MWT>  (8) 
320.3959999999997

>  <TPSA>  (8) 
50.28

>  <logP>  (8) 
3.5184200000000025

>  <HBD>  (8) 
1

>  <HBA>  (8) 
5

>  <SMILES>  (8) 
[H]c1c([H])c(C([H])([H])[H])c([H])c([H])c1N([H])c1nc(N2C([H])([H])C([H])([H])OC([H])([H])C2([H])[H])c2c([H])c([H])c([H])c([H])c2n1

$$$$
