Z91647328_pose9
     RDKit          3D

 43 45  0  0  0  0  0  0  0  0999 V2000
    1.1452   45.9074   54.9579 C   0  0  0  0  0  0  0  0  0  0  0  0
    1.7339   44.9446   53.9709 C   0  0  0  0  0  0  0  0  0  0  0  0
    3.1105   44.7170   53.9348 C   0  0  0  0  0  0  0  0  0  0  0  0
    3.6589   43.7934   53.0345 C   0  0  0  0  0  0  0  0  0  0  0  0
    2.8504   43.0750   52.1484 C   0  0  0  0  0  0  0  0  0  0  0  0
    3.3322   42.1191   51.2470 N   0  0  0  0  0  0  0  0  0  0  0  0
    4.5789   41.8717   50.6751 C   0  0  0  0  0  0  0  0  0  0  0  0
    4.8637   40.7152   50.0876 N   0  0  0  0  0  0  0  0  0  0  0  0
    6.0765   40.6047   49.5754 C   0  0  0  0  0  0  0  0  0  0  0  0
    6.3955   39.4177   48.9455 N   0  0  0  0  0  0  0  0  0  0  0  0
    6.9916   41.5556   49.5748 N   0  0  0  0  0  0  0  0  0  0  0  0
    6.6345   42.6811   50.1938 C   0  0  0  0  0  0  0  0  0  0  0  0
    7.6383   43.8120   50.2477 C   0  0  0  0  0  0  0  0  0  0  0  0
    7.9200   44.2502   51.5802 O   0  0  0  0  0  0  0  0  0  0  0  0
    7.2026   45.2912   52.0983 C   0  0  0  0  0  0  0  0  0  0  0  0
    7.0707   45.2638   53.4886 C   0  0  0  0  0  0  0  0  0  0  0  0
    6.3633   46.2631   54.1619 C   0  0  0  0  0  0  0  0  0  0  0  0
    5.7811   47.3143   53.4506 C   0  0  0  0  0  0  0  0  0  0  0  0
    4.9879   48.3706   54.1606 C   0  0  0  0  0  0  0  0  0  0  0  0
    5.8991   47.3325   52.0559 C   0  0  0  0  0  0  0  0  0  0  0  0
    6.6101   46.3299   51.3837 C   0  0  0  0  0  0  0  0  0  0  0  0
    5.4337   42.8906   50.7434 N   0  0  0  0  0  0  0  0  0  0  0  0
    1.4662   43.2967   52.2126 C   0  0  0  0  0  0  0  0  0  0  0  0
    0.9109   44.2153   53.1100 C   0  0  0  0  0  0  0  0  0  0  0  0
    1.3955   46.9364   54.6604 H   0  0  0  0  0  0  0  0  0  0  0  0
    0.0519   45.7877   54.9795 H   0  0  0  0  0  0  0  0  0  0  0  0
    1.5561   45.7045   55.9579 H   0  0  0  0  0  0  0  0  0  0  0  0
    3.7716   45.2680   54.6199 H   0  0  0  0  0  0  0  0  0  0  0  0
    4.7467   43.6304   53.0249 H   0  0  0  0  0  0  0  0  0  0  0  0
    2.6413   41.5264   50.8120 H   0  0  0  0  0  0  0  0  0  0  0  0
    5.5603   38.8800   48.7640 H   0  0  0  0  0  0  0  0  0  0  0  0
    7.0241   39.5864   48.1738 H   0  0  0  0  0  0  0  0  0  0  0  0
    8.5763   43.4695   49.7863 H   0  0  0  0  0  0  0  0  0  0  0  0
    7.2007   44.6647   49.7079 H   0  0  0  0  0  0  0  0  0  0  0  0
    7.5299   44.4445   54.0612 H   0  0  0  0  0  0  0  0  0  0  0  0
    6.2646   46.2215   55.2566 H   0  0  0  0  0  0  0  0  0  0  0  0
    5.1446   49.3409   53.6666 H   0  0  0  0  0  0  0  0  0  0  0  0
    3.9195   48.1108   54.1279 H   0  0  0  0  0  0  0  0  0  0  0  0
    5.3177   48.4349   55.2080 H   0  0  0  0  0  0  0  0  0  0  0  0
    5.4281   48.1434   51.4810 H   0  0  0  0  0  0  0  0  0  0  0  0
    6.7009   46.3630   50.2880 H   0  0  0  0  0  0  0  0  0  0  0  0
    0.8013   42.7342   51.5407 H   0  0  0  0  0  0  0  0  0  0  0  0
   -0.1787   44.3637   53.1375 H   0  0  0  0  0  0  0  0  0  0  0  0
  1  2  1  0
  2  3  2  0
  3  4  1  0
  4  5  2  0
  5  6  1  0
  6  7  1  0
  7  8  2  0
  8  9  1  0
  9 10  1  0
  9 11  2  0
 11 12  1  0
 12 13  1  0
 13 14  1  0
 14 15  1  0
 15 16  2  0
 16 17  1  0
 17 18  2  0
 18 19  1  0
 18 20  1  0
 20 21  2  0
 12 22  2  0
  5 23  1  0
 23 24  2  0
 24  2  1  0
 22  7  1  0
 21 15  1  0
  1 25  1  0
  1 26  1  0
  1 27  1  0
  3 28  1  0
  4 29  1  0
  6 30  1  0
 10 31  1  0
 10 32  1  0
 13 33  1  0
 13 34  1  0
 16 35  1  0
 17 36  1  0
 19 37  1  0
 19 38  1  0
 19 39  1  0
 20 40  1  0
 21 41  1  0
 23 42  1  0
 24 43  1  0
M  END
>  <meeko>  (1) 
{"is_sidechain": false}

>  <CID>  (1) 
Z91647328

>  <pose_index>  (1) 
9

>  <docking_score>  (1) 
-8.945

>  <rmsd_to_best_selected>  (1) 
1.420865177342393

>  <MWT>  (1) 
321.3839999999997

>  <TPSA>  (1) 
85.95

>  <logP>  (1) 
3.3932400000000023

>  <HBD>  (1) 
2

>  <HBA>  (1) 
6

>  <SMILES>  (1) 
[H]c1c([H])c(C([H])([H])[H])c([H])c([H])c1OC([H])([H])c1nc(N([H])[H])nc(N([H])c2c([H])c([H])c(C([H])([H])[H])c([H])c2[H])n1

$$$$
Z91647328_pose3
     RDKit          3D

 43 45  0  0  0  0  0  0  0  0999 V2000
    0.9087   45.8584   54.7299 C   0  0  0  0  0  0  0  0  0  0  0  0
    1.4453   44.9906   53.6315 C   0  0  0  0  0  0  0  0  0  0  0  0
    1.6831   45.5191   52.3614 C   0  0  0  0  0  0  0  0  0  0  0  0
    2.2155   44.7173   51.3424 C   0  0  0  0  0  0  0  0  0  0  0  0
    2.5224   43.3712   51.5626 C   0  0  0  0  0  0  0  0  0  0  0  0
    3.0827   42.5271   50.5971 N   0  0  0  0  0  0  0  0  0  0  0  0
    4.3888   42.2087   50.2322 C   0  0  0  0  0  0  0  0  0  0  0  0
    4.6655   41.5720   49.1001 N   0  0  0  0  0  0  0  0  0  0  0  0
    5.9427   41.3346   48.8619 C   0  0  0  0  0  0  0  0  0  0  0  0
    6.2612   40.6860   47.6855 N   0  0  0  0  0  0  0  0  0  0  0  0
    6.9441   41.7098   49.6357 N   0  0  0  0  0  0  0  0  0  0  0  0
    6.5846   42.3315   50.7589 C   0  0  0  0  0  0  0  0  0  0  0  0
    7.6768   42.7778   51.7051 C   0  0  0  0  0  0  0  0  0  0  0  0
    7.1813   43.1956   52.9801 O   0  0  0  0  0  0  0  0  0  0  0  0
    6.9554   44.5253   53.1975 C   0  0  0  0  0  0  0  0  0  0  0  0
    5.6064   44.8697   53.3056 C   0  0  0  0  0  0  0  0  0  0  0  0
    5.2196   46.1937   53.5282 C   0  0  0  0  0  0  0  0  0  0  0  0
    6.1833   47.1967   53.6572 C   0  0  0  0  0  0  0  0  0  0  0  0
    5.7764   48.6260   53.8583 C   0  0  0  0  0  0  0  0  0  0  0  0
    7.5350   46.8537   53.5329 C   0  0  0  0  0  0  0  0  0  0  0  0
    7.9185   45.5253   53.3101 C   0  0  0  0  0  0  0  0  0  0  0  0
    5.3217   42.6174   51.0905 N   0  0  0  0  0  0  0  0  0  0  0  0
    2.3008   42.8607   52.8520 C   0  0  0  0  0  0  0  0  0  0  0  0
    1.7724   43.6546   53.8743 C   0  0  0  0  0  0  0  0  0  0  0  0
   -0.0189   46.3444   54.3932 H   0  0  0  0  0  0  0  0  0  0  0  0
    0.6985   45.2408   55.6156 H   0  0  0  0  0  0  0  0  0  0  0  0
    1.6528   46.6267   54.9868 H   0  0  0  0  0  0  0  0  0  0  0  0
    1.4506   46.5749   52.1584 H   0  0  0  0  0  0  0  0  0  0  0  0
    2.3954   45.1558   50.3498 H   0  0  0  0  0  0  0  0  0  0  0  0
    2.4412   42.1219   49.9313 H   0  0  0  0  0  0  0  0  0  0  0  0
    7.0027   41.1727   47.2033 H   0  0  0  0  0  0  0  0  0  0  0  0
    6.3774   39.6958   47.8490 H   0  0  0  0  0  0  0  0  0  0  0  0
    8.3716   41.9388   51.8577 H   0  0  0  0  0  0  0  0  0  0  0  0
    8.1723   43.6461   51.2462 H   0  0  0  0  0  0  0  0  0  0  0  0
    4.8378   44.0880   53.2143 H   0  0  0  0  0  0  0  0  0  0  0  0
    4.1518   46.4473   53.6022 H   0  0  0  0  0  0  0  0  0  0  0  0
    5.1168   48.9387   53.0354 H   0  0  0  0  0  0  0  0  0  0  0  0
    5.2415   48.7239   54.8145 H   0  0  0  0  0  0  0  0  0  0  0  0
    6.6725   49.2638   53.8725 H   0  0  0  0  0  0  0  0  0  0  0  0
    8.3042   47.6362   53.6112 H   0  0  0  0  0  0  0  0  0  0  0  0
    8.9851   45.2705   53.2236 H   0  0  0  0  0  0  0  0  0  0  0  0
    2.5491   41.8100   53.0628 H   0  0  0  0  0  0  0  0  0  0  0  0
    1.6137   43.2251   54.8745 H   0  0  0  0  0  0  0  0  0  0  0  0
  1  2  1  0
  2  3  2  0
  3  4  1  0
  4  5  2  0
  5  6  1  0
  6  7  1  0
  7  8  2  0
  8  9  1  0
  9 10  1  0
  9 11  2  0
 11 12  1  0
 12 13  1  0
 13 14  1  0
 14 15  1  0
 15 16  2  0
 16 17  1  0
 17 18  2  0
 18 19  1  0
 18 20  1  0
 20 21  2  0
 12 22  2  0
  5 23  1  0
 23 24  2  0
 24  2  1  0
 22  7  1  0
 21 15  1  0
  1 25  1  0
  1 26  1  0
  1 27  1  0
  3 28  1  0
  4 29  1  0
  6 30  1  0
 10 31  1  0
 10 32  1  0
 13 33  1  0
 13 34  1  0
 16 35  1  0
 17 36  1  0
 19 37  1  0
 19 38  1  0
 19 39  1  0
 20 40  1  0
 21 41  1  0
 23 42  1  0
 24 43  1  0
M  END
>  <meeko>  (2) 
{"is_sidechain": false}

>  <CID>  (2) 
Z91647328

>  <pose_index>  (2) 
3

>  <docking_score>  (2) 
-9.155

>  <rmsd_to_best_selected>  (2) 
0.0

>  <MWT>  (2) 
321.3839999999997

>  <TPSA>  (2) 
85.95

>  <logP>  (2) 
3.3932400000000023

>  <HBD>  (2) 
2

>  <HBA>  (2) 
6

>  <SMILES>  (2) 
[H]c1c([H])c(C([H])([H])[H])c([H])c([H])c1OC([H])([H])c1nc(N([H])[H])nc(N([H])c2c([H])c([H])c(C([H])([H])[H])c([H])c2[H])n1

$$$$
Z91647328_pose5
     RDKit          3D

 43 45  0  0  0  0  0  0  0  0999 V2000
    0.2403   45.9493   53.7747 C   0  0  0  0  0  0  0  0  0  0  0  0
    1.0335   44.8009   53.2291 C   0  0  0  0  0  0  0  0  0  0  0  0
    0.4322   43.8513   52.4007 C   0  0  0  0  0  0  0  0  0  0  0  0
    1.1813   42.7942   51.8642 C   0  0  0  0  0  0  0  0  0  0  0  0
    2.5445   42.6578   52.1389 C   0  0  0  0  0  0  0  0  0  0  0  0
    3.3528   41.6438   51.6105 N   0  0  0  0  0  0  0  0  0  0  0  0
    4.5419   41.6353   50.8849 C   0  0  0  0  0  0  0  0  0  0  0  0
    4.7056   40.8639   49.8160 N   0  0  0  0  0  0  0  0  0  0  0  0
    5.8757   40.9511   49.2078 C   0  0  0  0  0  0  0  0  0  0  0  0
    6.0687   40.1705   48.0861 N   0  0  0  0  0  0  0  0  0  0  0  0
    6.8570   41.7601   49.5593 N   0  0  0  0  0  0  0  0  0  0  0  0
    6.6199   42.4931   50.6479 C   0  0  0  0  0  0  0  0  0  0  0  0
    7.7069   43.4332   51.1216 C   0  0  0  0  0  0  0  0  0  0  0  0
    7.6035   43.7588   52.5102 O   0  0  0  0  0  0  0  0  0  0  0  0
    7.3447   45.0516   52.8691 C   0  0  0  0  0  0  0  0  0  0  0  0
    6.3688   45.1908   53.8581 C   0  0  0  0  0  0  0  0  0  0  0  0
    5.9975   46.4533   54.3261 C   0  0  0  0  0  0  0  0  0  0  0  0
    6.6087   47.6015   53.8165 C   0  0  0  0  0  0  0  0  0  0  0  0
    6.1896   48.9623   54.2863 C   0  0  0  0  0  0  0  0  0  0  0  0
    7.5746   47.4622   52.8131 C   0  0  0  0  0  0  0  0  0  0  0  0
    7.9454   46.1946   52.3457 C   0  0  0  0  0  0  0  0  0  0  0  0
    5.4730   42.4760   51.3324 N   0  0  0  0  0  0  0  0  0  0  0  0
    3.1409   43.6341   52.9523 C   0  0  0  0  0  0  0  0  0  0  0  0
    2.4016   44.6922   53.4906 C   0  0  0  0  0  0  0  0  0  0  0  0
    0.2671   46.7856   53.0605 H   0  0  0  0  0  0  0  0  0  0  0  0
   -0.8019   45.6338   53.9308 H   0  0  0  0  0  0  0  0  0  0  0  0
    0.6733   46.2716   54.7331 H   0  0  0  0  0  0  0  0  0  0  0  0
   -0.6395   43.9333   52.1667 H   0  0  0  0  0  0  0  0  0  0  0  0
    0.6860   42.0578   51.2143 H   0  0  0  0  0  0  0  0  0  0  0  0
    2.9778   40.7072   51.6498 H   0  0  0  0  0  0  0  0  0  0  0  0
    5.3125   39.5074   47.9824 H   0  0  0  0  0  0  0  0  0  0  0  0
    6.2993   40.7474   47.2897 H   0  0  0  0  0  0  0  0  0  0  0  0
    8.6825   42.9565   50.9459 H   0  0  0  0  0  0  0  0  0  0  0  0
    7.5977   44.3707   50.5567 H   0  0  0  0  0  0  0  0  0  0  0  0
    5.8860   44.2942   54.2741 H   0  0  0  0  0  0  0  0  0  0  0  0
    5.2204   46.5439   55.0994 H   0  0  0  0  0  0  0  0  0  0  0  0
    6.4899   49.7154   53.5429 H   0  0  0  0  0  0  0  0  0  0  0  0
    5.0970   48.9864   54.4119 H   0  0  0  0  0  0  0  0  0  0  0  0
    6.6743   49.1833   55.2487 H   0  0  0  0  0  0  0  0  0  0  0  0
    8.0483   48.3587   52.3865 H   0  0  0  0  0  0  0  0  0  0  0  0
    8.7129   46.1014   51.5633 H   0  0  0  0  0  0  0  0  0  0  0  0
    4.2166   43.5652   53.1718 H   0  0  0  0  0  0  0  0  0  0  0  0
    2.8994   45.4422   54.1227 H   0  0  0  0  0  0  0  0  0  0  0  0
  1  2  1  0
  2  3  2  0
  3  4  1  0
  4  5  2  0
  5  6  1  0
  6  7  1  0
  7  8  2  0
  8  9  1  0
  9 10  1  0
  9 11  2  0
 11 12  1  0
 12 13  1  0
 13 14  1  0
 14 15  1  0
 15 16  2  0
 16 17  1  0
 17 18  2  0
 18 19  1  0
 18 20  1  0
 20 21  2  0
 12 22  2  0
  5 23  1  0
 23 24  2  0
 24  2  1  0
 22  7  1  0
 21 15  1  0
  1 25  1  0
  1 26  1  0
  1 27  1  0
  3 28  1  0
  4 29  1  0
  6 30  1  0
 10 31  1  0
 10 32  1  0
 13 33  1  0
 13 34  1  0
 16 35  1  0
 17 36  1  0
 19 37  1  0
 19 38  1  0
 19 39  1  0
 20 40  1  0
 21 41  1  0
 23 42  1  0
 24 43  1  0
M  END
>  <meeko>  (3) 
{"is_sidechain": false}

>  <CID>  (3) 
Z91647328

>  <pose_index>  (3) 
5

>  <docking_score>  (3) 
-9.027

>  <rmsd_to_best_selected>  (3) 
1.382610648757678

>  <MWT>  (3) 
321.3839999999997

>  <TPSA>  (3) 
85.95

>  <logP>  (3) 
3.3932400000000023

>  <HBD>  (3) 
2

>  <HBA>  (3) 
6

>  <SMILES>  (3) 
[H]c1c([H])c(C([H])([H])[H])c([H])c([H])c1OC([H])([H])c1nc(N([H])[H])nc(N([H])c2c([H])c([H])c(C([H])([H])[H])c([H])c2[H])n1

$$$$
Z91647328_pose6
     RDKit          3D

 43 45  0  0  0  0  0  0  0  0999 V2000
    0.6387   45.7788   54.6330 C   0  0  0  0  0  0  0  0  0  0  0  0
    1.2668   44.9870   53.5257 C   0  0  0  0  0  0  0  0  0  0  0  0
    1.8877   45.6330   52.4544 C   0  0  0  0  0  0  0  0  0  0  0  0
    2.5025   44.8948   51.4348 C   0  0  0  0  0  0  0  0  0  0  0  0
    2.5149   43.4969   51.4555 C   0  0  0  0  0  0  0  0  0  0  0  0
    3.1381   42.7046   50.4842 N   0  0  0  0  0  0  0  0  0  0  0  0
    4.4260   42.1985   50.3306 C   0  0  0  0  0  0  0  0  0  0  0  0
    4.6476   40.9270   50.0177 N   0  0  0  0  0  0  0  0  0  0  0  0
    5.9132   40.5683   49.8907 C   0  0  0  0  0  0  0  0  0  0  0  0
    6.1723   39.2559   49.5528 N   0  0  0  0  0  0  0  0  0  0  0  0
    6.9486   41.3784   50.0162 N   0  0  0  0  0  0  0  0  0  0  0  0
    6.6448   42.6341   50.3425 C   0  0  0  0  0  0  0  0  0  0  0  0
    7.7816   43.6168   50.5192 C   0  0  0  0  0  0  0  0  0  0  0  0
    8.0448   43.9335   51.8889 O   0  0  0  0  0  0  0  0  0  0  0  0
    7.3813   44.9796   52.4649 C   0  0  0  0  0  0  0  0  0  0  0  0
    8.0918   45.6216   53.4811 C   0  0  0  0  0  0  0  0  0  0  0  0
    7.5410   46.7108   54.1626 C   0  0  0  0  0  0  0  0  0  0  0  0
    6.2697   47.1801   53.8293 C   0  0  0  0  0  0  0  0  0  0  0  0
    5.6559   48.3234   54.5808 C   0  0  0  0  0  0  0  0  0  0  0  0
    5.5507   46.5257   52.8221 C   0  0  0  0  0  0  0  0  0  0  0  0
    6.1057   45.4355   52.1401 C   0  0  0  0  0  0  0  0  0  0  0  0
    5.3994   43.0930   50.4933 N   0  0  0  0  0  0  0  0  0  0  0  0
    1.9087   42.8624   52.5507 C   0  0  0  0  0  0  0  0  0  0  0  0
    1.2936   43.5919   53.5742 C   0  0  0  0  0  0  0  0  0  0  0  0
    0.1000   45.0993   55.3098 H   0  0  0  0  0  0  0  0  0  0  0  0
    1.4219   46.3100   55.1939 H   0  0  0  0  0  0  0  0  0  0  0  0
   -0.0665   46.5082   54.2079 H   0  0  0  0  0  0  0  0  0  0  0  0
    1.8940   46.7321   52.4108 H   0  0  0  0  0  0  0  0  0  0  0  0
    2.9853   45.4257   50.6011 H   0  0  0  0  0  0  0  0  0  0  0  0
    2.6053   42.5245   49.6467 H   0  0  0  0  0  0  0  0  0  0  0  0
    5.5554   38.9541   48.8121 H   0  0  0  0  0  0  0  0  0  0  0  0
    7.1643   39.1142   49.4251 H   0  0  0  0  0  0  0  0  0  0  0  0
    8.6913   43.1816   50.0799 H   0  0  0  0  0  0  0  0  0  0  0  0
    7.4870   44.5509   50.0184 H   0  0  0  0  0  0  0  0  0  0  0  0
    9.0977   45.2659   53.7487 H   0  0  0  0  0  0  0  0  0  0  0  0
    8.1122   47.2002   54.9652 H   0  0  0  0  0  0  0  0  0  0  0  0
    4.9260   47.9354   55.3066 H   0  0  0  0  0  0  0  0  0  0  0  0
    6.4433   48.8772   55.1131 H   0  0  0  0  0  0  0  0  0  0  0  0
    5.1481   48.9963   53.8741 H   0  0  0  0  0  0  0  0  0  0  0  0
    4.5390   46.8715   52.5636 H   0  0  0  0  0  0  0  0  0  0  0  0
    5.5319   44.9373   51.3448 H   0  0  0  0  0  0  0  0  0  0  0  0
    1.9172   41.7638   52.6059 H   0  0  0  0  0  0  0  0  0  0  0  0
    0.8294   43.0641   54.4203 H   0  0  0  0  0  0  0  0  0  0  0  0
  1  2  1  0
  2  3  2  0
  3  4  1  0
  4  5  2  0
  5  6  1  0
  6  7  1  0
  7  8  2  0
  8  9  1  0
  9 10  1  0
  9 11  2  0
 11 12  1  0
 12 13  1  0
 13 14  1  0
 14 15  1  0
 15 16  2  0
 16 17  1  0
 17 18  2  0
 18 19  1  0
 18 20  1  0
 20 21  2  0
 12 22  2  0
  5 23  1  0
 23 24  2  0
 24  2  1  0
 22  7  1  0
 21 15  1  0
  1 25  1  0
  1 26  1  0
  1 27  1  0
  3 28  1  0
  4 29  1  0
  6 30  1  0
 10 31  1  0
 10 32  1  0
 13 33  1  0
 13 34  1  0
 16 35  1  0
 17 36  1  0
 19 37  1  0
 19 38  1  0
 19 39  1  0
 20 40  1  0
 21 41  1  0
 23 42  1  0
 24 43  1  0
M  END
>  <meeko>  (4) 
{"is_sidechain": false}

>  <CID>  (4) 
Z91647328

>  <pose_index>  (4) 
6

>  <docking_score>  (4) 
-8.991

>  <rmsd_to_best_selected>  (4) 
1.1113134139229357

>  <MWT>  (4) 
321.3839999999997

>  <TPSA>  (4) 
85.95

>  <logP>  (4) 
3.3932400000000023

>  <HBD>  (4) 
2

>  <HBA>  (4) 
6

>  <SMILES>  (4) 
[H]c1c([H])c(C([H])([H])[H])c([H])c([H])c1OC([H])([H])c1nc(N([H])[H])nc(N([H])c2c([H])c([H])c(C([H])([H])[H])c([H])c2[H])n1

$$$$
Z91647328_pose7
     RDKit          3D

 43 45  0  0  0  0  0  0  0  0999 V2000
    1.4159   46.0514   54.8711 C   0  0  0  0  0  0  0  0  0  0  0  0
    1.8803   44.9660   53.9461 C   0  0  0  0  0  0  0  0  0  0  0  0
    0.9738   44.3073   53.1135 C   0  0  0  0  0  0  0  0  0  0  0  0
    1.4111   43.3149   52.2253 C   0  0  0  0  0  0  0  0  0  0  0  0
    2.7589   42.9558   52.1436 C   0  0  0  0  0  0  0  0  0  0  0  0
    3.2627   41.9966   51.2577 N   0  0  0  0  0  0  0  0  0  0  0  0
    4.5108   41.7742   50.6810 C   0  0  0  0  0  0  0  0  0  0  0  0
    4.7548   40.7091   49.9251 N   0  0  0  0  0  0  0  0  0  0  0  0
    5.9744   40.6148   49.4274 C   0  0  0  0  0  0  0  0  0  0  0  0
    6.2522   39.5248   48.6275 N   0  0  0  0  0  0  0  0  0  0  0  0
    6.9350   41.5036   49.5942 N   0  0  0  0  0  0  0  0  0  0  0  0
    6.6172   42.5367   50.3749 C   0  0  0  0  0  0  0  0  0  0  0  0
    7.6741   43.5899   50.6255 C   0  0  0  0  0  0  0  0  0  0  0  0
    7.7246   44.0223   51.9886 O   0  0  0  0  0  0  0  0  0  0  0  0
    7.0470   45.1518   52.3489 C   0  0  0  0  0  0  0  0  0  0  0  0
    6.9485   45.3493   53.7283 C   0  0  0  0  0  0  0  0  0  0  0  0
    6.2833   46.4627   54.2475 C   0  0  0  0  0  0  0  0  0  0  0  0
    5.7107   47.4041   53.3896 C   0  0  0  0  0  0  0  0  0  0  0  0
    4.9613   48.5816   53.9391 C   0  0  0  0  0  0  0  0  0  0  0  0
    5.7935   47.1975   52.0078 C   0  0  0  0  0  0  0  0  0  0  0  0
    6.4625   46.0813   51.4901 C   0  0  0  0  0  0  0  0  0  0  0  0
    5.4128   42.7223   50.9247 N   0  0  0  0  0  0  0  0  0  0  0  0
    3.6626   43.6442   52.9694 C   0  0  0  0  0  0  0  0  0  0  0  0
    3.2339   44.6370   53.8569 C   0  0  0  0  0  0  0  0  0  0  0  0
    1.7178   47.0298   54.4690 H   0  0  0  0  0  0  0  0  0  0  0  0
    0.3201   46.0137   54.9597 H   0  0  0  0  0  0  0  0  0  0  0  0
    1.8691   45.9068   55.8628 H   0  0  0  0  0  0  0  0  0  0  0  0
   -0.0937   44.5694   53.1549 H   0  0  0  0  0  0  0  0  0  0  0  0
    0.6784   42.8086   51.5797 H   0  0  0  0  0  0  0  0  0  0  0  0
    2.5856   41.3737   50.8416 H   0  0  0  0  0  0  0  0  0  0  0  0
    5.5702   39.4482   47.8855 H   0  0  0  0  0  0  0  0  0  0  0  0
    7.2289   39.5156   48.3701 H   0  0  0  0  0  0  0  0  0  0  0  0
    8.6550   43.1728   50.3541 H   0  0  0  0  0  0  0  0  0  0  0  0
    7.4150   44.4662   50.0132 H   0  0  0  0  0  0  0  0  0  0  0  0
    7.4006   44.6184   54.4148 H   0  0  0  0  0  0  0  0  0  0  0  0
    6.2102   46.5984   55.3366 H   0  0  0  0  0  0  0  0  0  0  0  0
    5.1293   49.4566   53.2941 H   0  0  0  0  0  0  0  0  0  0  0  0
    3.8864   48.3500   53.9703 H   0  0  0  0  0  0  0  0  0  0  0  0
    5.3186   48.8016   54.9559 H   0  0  0  0  0  0  0  0  0  0  0  0
    5.3280   47.9196   51.3209 H   0  0  0  0  0  0  0  0  0  0  0  0
    6.5270   45.9375   50.4015 H   0  0  0  0  0  0  0  0  0  0  0  0
    4.7331   43.3968   52.9171 H   0  0  0  0  0  0  0  0  0  0  0  0
    3.9672   45.1609   54.4876 H   0  0  0  0  0  0  0  0  0  0  0  0
  1  2  1  0
  2  3  2  0
  3  4  1  0
  4  5  2  0
  5  6  1  0
  6  7  1  0
  7  8  2  0
  8  9  1  0
  9 10  1  0
  9 11  2  0
 11 12  1  0
 12 13  1  0
 13 14  1  0
 14 15  1  0
 15 16  2  0
 16 17  1  0
 17 18  2  0
 18 19  1  0
 18 20  1  0
 20 21  2  0
 12 22  2  0
  5 23  1  0
 23 24  2  0
 24  2  1  0
 22  7  1  0
 21 15  1  0
  1 25  1  0
  1 26  1  0
  1 27  1  0
  3 28  1  0
  4 29  1  0
  6 30  1  0
 10 31  1  0
 10 32  1  0
 13 33  1  0
 13 34  1  0
 16 35  1  0
 17 36  1  0
 19 37  1  0
 19 38  1  0
 19 39  1  0
 20 40  1  0
 21 41  1  0
 23 42  1  0
 24 43  1  0
M  END
>  <meeko>  (5) 
{"is_sidechain": false}

>  <CID>  (5) 
Z91647328

>  <pose_index>  (5) 
7

>  <docking_score>  (5) 
-8.972

>  <rmsd_to_best_selected>  (5) 
1.3623188828721162

>  <MWT>  (5) 
321.3839999999997

>  <TPSA>  (5) 
85.95

>  <logP>  (5) 
3.3932400000000023

>  <HBD>  (5) 
2

>  <HBA>  (5) 
6

>  <SMILES>  (5) 
[H]c1c([H])c(C([H])([H])[H])c([H])c([H])c1OC([H])([H])c1nc(N([H])[H])nc(N([H])c2c([H])c([H])c(C([H])([H])[H])c([H])c2[H])n1

$$$$
Z91647328_pose10
     RDKit          3D

 43 45  0  0  0  0  0  0  0  0999 V2000
    1.2637   46.4264   54.5026 C   0  0  0  0  0  0  0  0  0  0  0  0
    1.9432   45.2716   53.8293 C   0  0  0  0  0  0  0  0  0  0  0  0
    2.6624   44.3374   54.5774 C   0  0  0  0  0  0  0  0  0  0  0  0
    3.2715   43.2406   53.9537 C   0  0  0  0  0  0  0  0  0  0  0  0
    3.1797   43.0462   52.5725 C   0  0  0  0  0  0  0  0  0  0  0  0
    3.7391   41.9561   51.8944 N   0  0  0  0  0  0  0  0  0  0  0  0
    4.8403   41.8020   51.0557 C   0  0  0  0  0  0  0  0  0  0  0  0
    4.8949   40.8408   50.1412 N   0  0  0  0  0  0  0  0  0  0  0  0
    5.9887   40.8035   49.3991 C   0  0  0  0  0  0  0  0  0  0  0  0
    6.0673   39.8216   48.4321 N   0  0  0  0  0  0  0  0  0  0  0  0
    6.9910   41.6585   49.4783 N   0  0  0  0  0  0  0  0  0  0  0  0
    6.8662   42.5850   50.4277 C   0  0  0  0  0  0  0  0  0  0  0  0
    7.9838   43.5916   50.5892 C   0  0  0  0  0  0  0  0  0  0  0  0
    7.5489   44.9467   50.4339 O   0  0  0  0  0  0  0  0  0  0  0  0
    6.9244   45.5624   51.4800 C   0  0  0  0  0  0  0  0  0  0  0  0
    5.7064   46.1617   51.1501 C   0  0  0  0  0  0  0  0  0  0  0  0
    4.9515   46.8305   52.1181 C   0  0  0  0  0  0  0  0  0  0  0  0
    5.4021   46.9023   53.4369 C   0  0  0  0  0  0  0  0  0  0  0  0
    4.6173   47.6505   54.4734 C   0  0  0  0  0  0  0  0  0  0  0  0
    6.6305   46.3163   53.7636 C   0  0  0  0  0  0  0  0  0  0  0  0
    7.3845   45.6453   52.7923 C   0  0  0  0  0  0  0  0  0  0  0  0
    5.8023   42.7070   51.2274 N   0  0  0  0  0  0  0  0  0  0  0  0
    2.4322   43.9799   51.8370 C   0  0  0  0  0  0  0  0  0  0  0  0
    1.8201   45.0774   52.4520 C   0  0  0  0  0  0  0  0  0  0  0  0
    0.4481   46.0518   55.1386 H   0  0  0  0  0  0  0  0  0  0  0  0
    1.9921   46.9696   55.1226 H   0  0  0  0  0  0  0  0  0  0  0  0
    0.8524   47.1049   53.7407 H   0  0  0  0  0  0  0  0  0  0  0  0
    2.7516   44.4637   55.6665 H   0  0  0  0  0  0  0  0  0  0  0  0
    3.8334   42.5177   54.5634 H   0  0  0  0  0  0  0  0  0  0  0  0
    3.2042   41.1009   51.9048 H   0  0  0  0  0  0  0  0  0  0  0  0
    5.4332   39.0648   48.6439 H   0  0  0  0  0  0  0  0  0  0  0  0
    6.0173   40.2308   47.5092 H   0  0  0  0  0  0  0  0  0  0  0  0
    8.4159   43.4761   51.5941 H   0  0  0  0  0  0  0  0  0  0  0  0
    8.7205   43.3920   49.7971 H   0  0  0  0  0  0  0  0  0  0  0  0
    5.3367   46.1067   50.1155 H   0  0  0  0  0  0  0  0  0  0  0  0
    3.9978   47.3024   51.8389 H   0  0  0  0  0  0  0  0  0  0  0  0
    3.9982   46.9437   55.0453 H   0  0  0  0  0  0  0  0  0  0  0  0
    5.3092   48.1668   55.1551 H   0  0  0  0  0  0  0  0  0  0  0  0
    3.9692   48.3896   53.9798 H   0  0  0  0  0  0  0  0  0  0  0  0
    7.0081   46.3836   54.7946 H   0  0  0  0  0  0  0  0  0  0  0  0
    8.3436   45.1819   53.0669 H   0  0  0  0  0  0  0  0  0  0  0  0
    2.3254   43.8452   50.7505 H   0  0  0  0  0  0  0  0  0  0  0  0
    1.2394   45.7902   51.8481 H   0  0  0  0  0  0  0  0  0  0  0  0
  1  2  1  0
  2  3  2  0
  3  4  1  0
  4  5  2  0
  5  6  1  0
  6  7  1  0
  7  8  2  0
  8  9  1  0
  9 10  1  0
  9 11  2  0
 11 12  1  0
 12 13  1  0
 13 14  1  0
 14 15  1  0
 15 16  2  0
 16 17  1  0
 17 18  2  0
 18 19  1  0
 18 20  1  0
 20 21  2  0
 12 22  2  0
  5 23  1  0
 23 24  2  0
 24  2  1  0
 22  7  1  0
 21 15  1  0
  1 25  1  0
  1 26  1  0
  1 27  1  0
  3 28  1  0
  4 29  1  0
  6 30  1  0
 10 31  1  0
 10 32  1  0
 13 33  1  0
 13 34  1  0
 16 35  1  0
 17 36  1  0
 19 37  1  0
 19 38  1  0
 19 39  1  0
 20 40  1  0
 21 41  1  0
 23 42  1  0
 24 43  1  0
M  END
>  <meeko>  (6) 
{"is_sidechain": false}

>  <CID>  (6) 
Z91647328

>  <pose_index>  (6) 
10

>  <docking_score>  (6) 
-8.847

>  <rmsd_to_best_selected>  (6) 
1.4655541966108658

>  <MWT>  (6) 
321.3839999999997

>  <TPSA>  (6) 
85.95

>  <logP>  (6) 
3.3932400000000023

>  <HBD>  (6) 
2

>  <HBA>  (6) 
6

>  <SMILES>  (6) 
[H]c1c([H])c(C([H])([H])[H])c([H])c([H])c1OC([H])([H])c1nc(N([H])[H])nc(N([H])c2c([H])c([H])c(C([H])([H])[H])c([H])c2[H])n1

$$$$
